
---------- Begin Simulation Statistics ----------
simSeconds                                   1.147857                       # Number of seconds simulated (Second)
simTicks                                 1147856729531                       # Number of ticks simulated (Tick)
finalTick                                1147856729531                       # Number of ticks from beginning of simulation (restored from checkpoints and never reset) (Tick)
simFreq                                  1000000000000                       # The number of ticks per simulated second ((Tick/Second))
hostSeconds                                    227.07                       # Real time elapsed on the host (Second)
hostTickRate                               5055066852                       # The number of ticks simulated per host second (ticks/s) ((Tick/Second))
hostMemory                                    8624400                       # Number of bytes of host memory used (Byte)
simInsts                                     46536489                       # Number of instructions simulated (Count)
simOps                                       75047167                       # Number of ops (including micro ops) simulated (Count)
hostInstRate                                   204943                       # Simulator instruction rate (inst/s) ((Count/Second))
hostOpRate                                     330501                       # Simulator op (including micro ops) rate (op/s) ((Count/Second))
system.clk_domain.clock                         13333                       # Clock period in ticks (Tick)
system.clk_domain.voltage_domain.voltage            1                       # Voltage in Volts (Volt)
system.cpu.numCycles                         86091408                       # Number of cpu cycles simulated (Cycle)
system.cpu.cpi                               1.849976                       # CPI: cycles per instruction (core level) ((Cycle/Count))
system.cpu.ipc                               0.540547                       # IPC: instructions per cycle (core level) ((Count/Cycle))
system.cpu.numWorkItemsStarted                      0                       # Number of work items this cpu started (Count)
system.cpu.numWorkItemsCompleted                    0                       # Number of work items this cpu completed (Count)
system.cpu.instsAdded                        75792500                       # Number of instructions added to the IQ (excludes non-spec) (Count)
system.cpu.nonSpecInstsAdded                     2507                       # Number of non-speculative instructions added to the IQ (Count)
system.cpu.instsIssued                       77446388                       # Number of instructions issued (Count)
system.cpu.squashedInstsIssued                   3300                       # Number of squashed instructions issued (Count)
system.cpu.squashedInstsExamined               747832                       # Number of squashed instructions iterated over during squash; mainly for profiling (Count)
system.cpu.squashedOperandsExamined           1492774                       # Number of squashed operands that are examined and possibly removed from graph (Count)
system.cpu.squashedNonSpecRemoved                 195                       # Number of squashed non-spec instructions that were removed (Count)
system.cpu.numIssuedDist::samples            86011898                       # Number of insts issued each cycle (Count)
system.cpu.numIssuedDist::mean               0.900415                       # Number of insts issued each cycle (Count)
system.cpu.numIssuedDist::stdev              1.321162                       # Number of insts issued each cycle (Count)
system.cpu.numIssuedDist::underflows                0      0.00%      0.00% # Number of insts issued each cycle (Count)
system.cpu.numIssuedDist::0                  45878732     53.34%     53.34% # Number of insts issued each cycle (Count)
system.cpu.numIssuedDist::1                  22839989     26.55%     79.89% # Number of insts issued each cycle (Count)
system.cpu.numIssuedDist::2                   6527904      7.59%     87.48% # Number of insts issued each cycle (Count)
system.cpu.numIssuedDist::3                   5066682      5.89%     93.37% # Number of insts issued each cycle (Count)
system.cpu.numIssuedDist::4                   3009049      3.50%     96.87% # Number of insts issued each cycle (Count)
system.cpu.numIssuedDist::5                   1979699      2.30%     99.17% # Number of insts issued each cycle (Count)
system.cpu.numIssuedDist::6                    594654      0.69%     99.87% # Number of insts issued each cycle (Count)
system.cpu.numIssuedDist::7                     73582      0.09%     99.95% # Number of insts issued each cycle (Count)
system.cpu.numIssuedDist::8                     41607      0.05%    100.00% # Number of insts issued each cycle (Count)
system.cpu.numIssuedDist::overflows                 0      0.00%    100.00% # Number of insts issued each cycle (Count)
system.cpu.numIssuedDist::min_value                 0                       # Number of insts issued each cycle (Count)
system.cpu.numIssuedDist::max_value                 8                       # Number of insts issued each cycle (Count)
system.cpu.numIssuedDist::total              86011898                       # Number of insts issued each cycle (Count)
system.cpu.statFuBusy::No_OpClass                   0      0.00%      0.00% # attempts to use FU when none available (Count)
system.cpu.statFuBusy::IntAlu                   12504     32.65%     32.65% # attempts to use FU when none available (Count)
system.cpu.statFuBusy::IntMult                      0      0.00%     32.65% # attempts to use FU when none available (Count)
system.cpu.statFuBusy::IntDiv                       0      0.00%     32.65% # attempts to use FU when none available (Count)
system.cpu.statFuBusy::FloatAdd                     0      0.00%     32.65% # attempts to use FU when none available (Count)
system.cpu.statFuBusy::FloatCmp                     0      0.00%     32.65% # attempts to use FU when none available (Count)
system.cpu.statFuBusy::FloatCvt                     0      0.00%     32.65% # attempts to use FU when none available (Count)
system.cpu.statFuBusy::FloatMult                    0      0.00%     32.65% # attempts to use FU when none available (Count)
system.cpu.statFuBusy::FloatMultAcc                 0      0.00%     32.65% # attempts to use FU when none available (Count)
system.cpu.statFuBusy::FloatDiv                     0      0.00%     32.65% # attempts to use FU when none available (Count)
system.cpu.statFuBusy::FloatMisc                    0      0.00%     32.65% # attempts to use FU when none available (Count)
system.cpu.statFuBusy::FloatSqrt                    0      0.00%     32.65% # attempts to use FU when none available (Count)
system.cpu.statFuBusy::SimdAdd                     32      0.08%     32.73% # attempts to use FU when none available (Count)
system.cpu.statFuBusy::SimdAddAcc                   0      0.00%     32.73% # attempts to use FU when none available (Count)
system.cpu.statFuBusy::SimdAlu                    109      0.28%     33.02% # attempts to use FU when none available (Count)
system.cpu.statFuBusy::SimdCmp                      0      0.00%     33.02% # attempts to use FU when none available (Count)
system.cpu.statFuBusy::SimdCvt                      5      0.01%     33.03% # attempts to use FU when none available (Count)
system.cpu.statFuBusy::SimdMisc                    16      0.04%     33.07% # attempts to use FU when none available (Count)
system.cpu.statFuBusy::SimdMult                     0      0.00%     33.07% # attempts to use FU when none available (Count)
system.cpu.statFuBusy::SimdMultAcc                  0      0.00%     33.07% # attempts to use FU when none available (Count)
system.cpu.statFuBusy::SimdMatMultAcc               0      0.00%     33.07% # attempts to use FU when none available (Count)
system.cpu.statFuBusy::SimdShift                    1      0.00%     33.07% # attempts to use FU when none available (Count)
system.cpu.statFuBusy::SimdShiftAcc                 0      0.00%     33.07% # attempts to use FU when none available (Count)
system.cpu.statFuBusy::SimdDiv                      0      0.00%     33.07% # attempts to use FU when none available (Count)
system.cpu.statFuBusy::SimdSqrt                     0      0.00%     33.07% # attempts to use FU when none available (Count)
system.cpu.statFuBusy::SimdFloatAdd                 0      0.00%     33.07% # attempts to use FU when none available (Count)
system.cpu.statFuBusy::SimdFloatAlu                 0      0.00%     33.07% # attempts to use FU when none available (Count)
system.cpu.statFuBusy::SimdFloatCmp                 0      0.00%     33.07% # attempts to use FU when none available (Count)
system.cpu.statFuBusy::SimdFloatCvt                 0      0.00%     33.07% # attempts to use FU when none available (Count)
system.cpu.statFuBusy::SimdFloatDiv                 0      0.00%     33.07% # attempts to use FU when none available (Count)
system.cpu.statFuBusy::SimdFloatMisc                0      0.00%     33.07% # attempts to use FU when none available (Count)
system.cpu.statFuBusy::SimdFloatMult                0      0.00%     33.07% # attempts to use FU when none available (Count)
system.cpu.statFuBusy::SimdFloatMultAcc             0      0.00%     33.07% # attempts to use FU when none available (Count)
system.cpu.statFuBusy::SimdFloatMatMultAcc            0      0.00%     33.07% # attempts to use FU when none available (Count)
system.cpu.statFuBusy::SimdFloatSqrt                0      0.00%     33.07% # attempts to use FU when none available (Count)
system.cpu.statFuBusy::SimdReduceAdd                0      0.00%     33.07% # attempts to use FU when none available (Count)
system.cpu.statFuBusy::SimdReduceAlu                0      0.00%     33.07% # attempts to use FU when none available (Count)
system.cpu.statFuBusy::SimdReduceCmp                0      0.00%     33.07% # attempts to use FU when none available (Count)
system.cpu.statFuBusy::SimdFloatReduceAdd            0      0.00%     33.07% # attempts to use FU when none available (Count)
system.cpu.statFuBusy::SimdFloatReduceCmp            0      0.00%     33.07% # attempts to use FU when none available (Count)
system.cpu.statFuBusy::SimdAes                      0      0.00%     33.07% # attempts to use FU when none available (Count)
system.cpu.statFuBusy::SimdAesMix                   0      0.00%     33.07% # attempts to use FU when none available (Count)
system.cpu.statFuBusy::SimdSha1Hash                 0      0.00%     33.07% # attempts to use FU when none available (Count)
system.cpu.statFuBusy::SimdSha1Hash2                0      0.00%     33.07% # attempts to use FU when none available (Count)
system.cpu.statFuBusy::SimdSha256Hash               0      0.00%     33.07% # attempts to use FU when none available (Count)
system.cpu.statFuBusy::SimdSha256Hash2              0      0.00%     33.07% # attempts to use FU when none available (Count)
system.cpu.statFuBusy::SimdShaSigma2                0      0.00%     33.07% # attempts to use FU when none available (Count)
system.cpu.statFuBusy::SimdShaSigma3                0      0.00%     33.07% # attempts to use FU when none available (Count)
system.cpu.statFuBusy::SimdPredAlu                  0      0.00%     33.07% # attempts to use FU when none available (Count)
system.cpu.statFuBusy::Matrix                       0      0.00%     33.07% # attempts to use FU when none available (Count)
system.cpu.statFuBusy::MatrixMov                    0      0.00%     33.07% # attempts to use FU when none available (Count)
system.cpu.statFuBusy::MatrixOP                     0      0.00%     33.07% # attempts to use FU when none available (Count)
system.cpu.statFuBusy::MemRead                  12201     31.86%     64.93% # attempts to use FU when none available (Count)
system.cpu.statFuBusy::MemWrite                 11350     29.64%     94.57% # attempts to use FU when none available (Count)
system.cpu.statFuBusy::FloatMemRead              1930      5.04%     99.61% # attempts to use FU when none available (Count)
system.cpu.statFuBusy::FloatMemWrite              151      0.39%    100.00% # attempts to use FU when none available (Count)
system.cpu.statFuBusy::IprAccess                    0      0.00%    100.00% # attempts to use FU when none available (Count)
system.cpu.statFuBusy::InstPrefetch                 0      0.00%    100.00% # attempts to use FU when none available (Count)
system.cpu.statFuBusy::SimdUnitStrideLoad            0      0.00%    100.00% # attempts to use FU when none available (Count)
system.cpu.statFuBusy::SimdUnitStrideStore            0      0.00%    100.00% # attempts to use FU when none available (Count)
system.cpu.statFuBusy::SimdUnitStrideMaskLoad            0      0.00%    100.00% # attempts to use FU when none available (Count)
system.cpu.statFuBusy::SimdUnitStrideMaskStore            0      0.00%    100.00% # attempts to use FU when none available (Count)
system.cpu.statFuBusy::SimdStridedLoad              0      0.00%    100.00% # attempts to use FU when none available (Count)
system.cpu.statFuBusy::SimdStridedStore             0      0.00%    100.00% # attempts to use FU when none available (Count)
system.cpu.statFuBusy::SimdIndexedLoad              0      0.00%    100.00% # attempts to use FU when none available (Count)
system.cpu.statFuBusy::SimdIndexedStore             0      0.00%    100.00% # attempts to use FU when none available (Count)
system.cpu.statFuBusy::SimdWholeRegisterLoad            0      0.00%    100.00% # attempts to use FU when none available (Count)
system.cpu.statFuBusy::SimdWholeRegisterStore            0      0.00%    100.00% # attempts to use FU when none available (Count)
system.cpu.statFuBusy::SimdUnitStrideFaultOnlyFirstLoad            0      0.00%    100.00% # attempts to use FU when none available (Count)
system.cpu.statFuBusy::SimdUnitStrideSegmentedLoad            0      0.00%    100.00% # attempts to use FU when none available (Count)
system.cpu.statFuBusy::SimdUnitStrideSegmentedStore            0      0.00%    100.00% # attempts to use FU when none available (Count)
system.cpu.statFuBusy::SimdExt                      0      0.00%    100.00% # attempts to use FU when none available (Count)
system.cpu.statFuBusy::SimdFloatExt                 0      0.00%    100.00% # attempts to use FU when none available (Count)
system.cpu.statFuBusy::SimdConfig                   0      0.00%    100.00% # attempts to use FU when none available (Count)
system.cpu.statIssuedInstType_0::No_OpClass        60748      0.08%      0.08% # Number of instructions issued per FU type, per thread (Count)
system.cpu.statIssuedInstType_0::IntAlu      58442606     75.46%     75.54% # Number of instructions issued per FU type, per thread (Count)
system.cpu.statIssuedInstType_0::IntMult          628      0.00%     75.54% # Number of instructions issued per FU type, per thread (Count)
system.cpu.statIssuedInstType_0::IntDiv         47271      0.06%     75.60% # Number of instructions issued per FU type, per thread (Count)
system.cpu.statIssuedInstType_0::FloatAdd        10248      0.01%     75.62% # Number of instructions issued per FU type, per thread (Count)
system.cpu.statIssuedInstType_0::FloatCmp            0      0.00%     75.62% # Number of instructions issued per FU type, per thread (Count)
system.cpu.statIssuedInstType_0::FloatCvt         1376      0.00%     75.62% # Number of instructions issued per FU type, per thread (Count)
system.cpu.statIssuedInstType_0::FloatMult            0      0.00%     75.62% # Number of instructions issued per FU type, per thread (Count)
system.cpu.statIssuedInstType_0::FloatMultAcc            0      0.00%     75.62% # Number of instructions issued per FU type, per thread (Count)
system.cpu.statIssuedInstType_0::FloatDiv            0      0.00%     75.62% # Number of instructions issued per FU type, per thread (Count)
system.cpu.statIssuedInstType_0::FloatMisc            0      0.00%     75.62% # Number of instructions issued per FU type, per thread (Count)
system.cpu.statIssuedInstType_0::FloatSqrt            0      0.00%     75.62% # Number of instructions issued per FU type, per thread (Count)
system.cpu.statIssuedInstType_0::SimdAdd         6831      0.01%     75.63% # Number of instructions issued per FU type, per thread (Count)
system.cpu.statIssuedInstType_0::SimdAddAcc            0      0.00%     75.63% # Number of instructions issued per FU type, per thread (Count)
system.cpu.statIssuedInstType_0::SimdAlu        34054      0.04%     75.67% # Number of instructions issued per FU type, per thread (Count)
system.cpu.statIssuedInstType_0::SimdCmp           12      0.00%     75.67% # Number of instructions issued per FU type, per thread (Count)
system.cpu.statIssuedInstType_0::SimdCvt        13809      0.02%     75.69% # Number of instructions issued per FU type, per thread (Count)
system.cpu.statIssuedInstType_0::SimdMisc        15637      0.02%     75.71% # Number of instructions issued per FU type, per thread (Count)
system.cpu.statIssuedInstType_0::SimdMult            0      0.00%     75.71% # Number of instructions issued per FU type, per thread (Count)
system.cpu.statIssuedInstType_0::SimdMultAcc            0      0.00%     75.71% # Number of instructions issued per FU type, per thread (Count)
system.cpu.statIssuedInstType_0::SimdMatMultAcc            0      0.00%     75.71% # Number of instructions issued per FU type, per thread (Count)
system.cpu.statIssuedInstType_0::SimdShift         2703      0.00%     75.71% # Number of instructions issued per FU type, per thread (Count)
system.cpu.statIssuedInstType_0::SimdShiftAcc            0      0.00%     75.71% # Number of instructions issued per FU type, per thread (Count)
system.cpu.statIssuedInstType_0::SimdDiv            0      0.00%     75.71% # Number of instructions issued per FU type, per thread (Count)
system.cpu.statIssuedInstType_0::SimdSqrt            0      0.00%     75.71% # Number of instructions issued per FU type, per thread (Count)
system.cpu.statIssuedInstType_0::SimdFloatAdd          485      0.00%     75.71% # Number of instructions issued per FU type, per thread (Count)
system.cpu.statIssuedInstType_0::SimdFloatAlu            0      0.00%     75.71% # Number of instructions issued per FU type, per thread (Count)
system.cpu.statIssuedInstType_0::SimdFloatCmp            0      0.00%     75.71% # Number of instructions issued per FU type, per thread (Count)
system.cpu.statIssuedInstType_0::SimdFloatCvt         2430      0.00%     75.72% # Number of instructions issued per FU type, per thread (Count)
system.cpu.statIssuedInstType_0::SimdFloatDiv          243      0.00%     75.72% # Number of instructions issued per FU type, per thread (Count)
system.cpu.statIssuedInstType_0::SimdFloatMisc            0      0.00%     75.72% # Number of instructions issued per FU type, per thread (Count)
system.cpu.statIssuedInstType_0::SimdFloatMult            0      0.00%     75.72% # Number of instructions issued per FU type, per thread (Count)
system.cpu.statIssuedInstType_0::SimdFloatMultAcc            0      0.00%     75.72% # Number of instructions issued per FU type, per thread (Count)
system.cpu.statIssuedInstType_0::SimdFloatMatMultAcc            0      0.00%     75.72% # Number of instructions issued per FU type, per thread (Count)
system.cpu.statIssuedInstType_0::SimdFloatSqrt          242      0.00%     75.72% # Number of instructions issued per FU type, per thread (Count)
system.cpu.statIssuedInstType_0::SimdReduceAdd            0      0.00%     75.72% # Number of instructions issued per FU type, per thread (Count)
system.cpu.statIssuedInstType_0::SimdReduceAlu            0      0.00%     75.72% # Number of instructions issued per FU type, per thread (Count)
system.cpu.statIssuedInstType_0::SimdReduceCmp            0      0.00%     75.72% # Number of instructions issued per FU type, per thread (Count)
system.cpu.statIssuedInstType_0::SimdFloatReduceAdd            0      0.00%     75.72% # Number of instructions issued per FU type, per thread (Count)
system.cpu.statIssuedInstType_0::SimdFloatReduceCmp            0      0.00%     75.72% # Number of instructions issued per FU type, per thread (Count)
system.cpu.statIssuedInstType_0::SimdAes            0      0.00%     75.72% # Number of instructions issued per FU type, per thread (Count)
system.cpu.statIssuedInstType_0::SimdAesMix            0      0.00%     75.72% # Number of instructions issued per FU type, per thread (Count)
system.cpu.statIssuedInstType_0::SimdSha1Hash            0      0.00%     75.72% # Number of instructions issued per FU type, per thread (Count)
system.cpu.statIssuedInstType_0::SimdSha1Hash2            0      0.00%     75.72% # Number of instructions issued per FU type, per thread (Count)
system.cpu.statIssuedInstType_0::SimdSha256Hash            0      0.00%     75.72% # Number of instructions issued per FU type, per thread (Count)
system.cpu.statIssuedInstType_0::SimdSha256Hash2            0      0.00%     75.72% # Number of instructions issued per FU type, per thread (Count)
system.cpu.statIssuedInstType_0::SimdShaSigma2            0      0.00%     75.72% # Number of instructions issued per FU type, per thread (Count)
system.cpu.statIssuedInstType_0::SimdShaSigma3            0      0.00%     75.72% # Number of instructions issued per FU type, per thread (Count)
system.cpu.statIssuedInstType_0::SimdPredAlu            0      0.00%     75.72% # Number of instructions issued per FU type, per thread (Count)
system.cpu.statIssuedInstType_0::Matrix             0      0.00%     75.72% # Number of instructions issued per FU type, per thread (Count)
system.cpu.statIssuedInstType_0::MatrixMov            0      0.00%     75.72% # Number of instructions issued per FU type, per thread (Count)
system.cpu.statIssuedInstType_0::MatrixOP            0      0.00%     75.72% # Number of instructions issued per FU type, per thread (Count)
system.cpu.statIssuedInstType_0::MemRead     12244625     15.81%     91.53% # Number of instructions issued per FU type, per thread (Count)
system.cpu.statIssuedInstType_0::MemWrite      6382286      8.24%     99.77% # Number of instructions issued per FU type, per thread (Count)
system.cpu.statIssuedInstType_0::FloatMemRead       115730      0.15%     99.92% # Number of instructions issued per FU type, per thread (Count)
system.cpu.statIssuedInstType_0::FloatMemWrite        64424      0.08%    100.00% # Number of instructions issued per FU type, per thread (Count)
system.cpu.statIssuedInstType_0::IprAccess            0      0.00%    100.00% # Number of instructions issued per FU type, per thread (Count)
system.cpu.statIssuedInstType_0::InstPrefetch            0      0.00%    100.00% # Number of instructions issued per FU type, per thread (Count)
system.cpu.statIssuedInstType_0::SimdUnitStrideLoad            0      0.00%    100.00% # Number of instructions issued per FU type, per thread (Count)
system.cpu.statIssuedInstType_0::SimdUnitStrideStore            0      0.00%    100.00% # Number of instructions issued per FU type, per thread (Count)
system.cpu.statIssuedInstType_0::SimdUnitStrideMaskLoad            0      0.00%    100.00% # Number of instructions issued per FU type, per thread (Count)
system.cpu.statIssuedInstType_0::SimdUnitStrideMaskStore            0      0.00%    100.00% # Number of instructions issued per FU type, per thread (Count)
system.cpu.statIssuedInstType_0::SimdStridedLoad            0      0.00%    100.00% # Number of instructions issued per FU type, per thread (Count)
system.cpu.statIssuedInstType_0::SimdStridedStore            0      0.00%    100.00% # Number of instructions issued per FU type, per thread (Count)
system.cpu.statIssuedInstType_0::SimdIndexedLoad            0      0.00%    100.00% # Number of instructions issued per FU type, per thread (Count)
system.cpu.statIssuedInstType_0::SimdIndexedStore            0      0.00%    100.00% # Number of instructions issued per FU type, per thread (Count)
system.cpu.statIssuedInstType_0::SimdWholeRegisterLoad            0      0.00%    100.00% # Number of instructions issued per FU type, per thread (Count)
system.cpu.statIssuedInstType_0::SimdWholeRegisterStore            0      0.00%    100.00% # Number of instructions issued per FU type, per thread (Count)
system.cpu.statIssuedInstType_0::SimdUnitStrideFaultOnlyFirstLoad            0      0.00%    100.00% # Number of instructions issued per FU type, per thread (Count)
system.cpu.statIssuedInstType_0::SimdUnitStrideSegmentedLoad            0      0.00%    100.00% # Number of instructions issued per FU type, per thread (Count)
system.cpu.statIssuedInstType_0::SimdUnitStrideSegmentedStore            0      0.00%    100.00% # Number of instructions issued per FU type, per thread (Count)
system.cpu.statIssuedInstType_0::SimdExt            0      0.00%    100.00% # Number of instructions issued per FU type, per thread (Count)
system.cpu.statIssuedInstType_0::SimdFloatExt            0      0.00%    100.00% # Number of instructions issued per FU type, per thread (Count)
system.cpu.statIssuedInstType_0::SimdConfig            0      0.00%    100.00% # Number of instructions issued per FU type, per thread (Count)
system.cpu.statIssuedInstType_0::total       77446388                       # Number of instructions issued per FU type, per thread (Count)
system.cpu.issueRate                         0.899583                       # Inst issue rate ((Count/Cycle))
system.cpu.fuBusy                               38299                       # FU busy when requested (Count)
system.cpu.fuBusyRate                        0.000495                       # FU busy rate (busy events/executed inst) ((Count/Count))
system.cpu.intInstQueueReads                240395159                       # Number of integer instruction queue reads (Count)
system.cpu.intInstQueueWrites                76306194                       # Number of integer instruction queue writes (Count)
system.cpu.intInstQueueWakeupAccesses        75278713                       # Number of integer instruction queue wakeup accesses (Count)
system.cpu.fpInstQueueReads                    551114                       # Number of floating instruction queue reads (Count)
system.cpu.fpInstQueueWrites                   237221                       # Number of floating instruction queue writes (Count)
system.cpu.fpInstQueueWakeupAccesses           209394                       # Number of floating instruction queue wakeup accesses (Count)
system.cpu.vecInstQueueReads                        0                       # Number of vector instruction queue reads (Count)
system.cpu.vecInstQueueWrites                       0                       # Number of vector instruction queue writes (Count)
system.cpu.vecInstQueueWakeupAccesses               0                       # Number of vector instruction queue wakeup accesses (Count)
system.cpu.intAluAccesses                    77147436                       # Number of integer alu accesses (Count)
system.cpu.fpAluAccesses                       276503                       # Number of floating point alu accesses (Count)
system.cpu.vecAluAccesses                           0                       # Number of vector alu accesses (Count)
system.cpu.numSquashedInsts                     24984                       # Number of squashed instructions skipped in execute (Count)
system.cpu.numSwp                                   0                       # Number of swp insts executed (Count)
system.cpu.timesIdled                           12332                       # Number of times that the entire CPU went into an idle state and unscheduled itself (Count)
system.cpu.idleCycles                           79510                       # Total number of cycles that the CPU has spent unscheduled due to idling (Cycle)
system.cpu.MemDepUnit__0.insertedLoads       10493152                       # Number of loads inserted to the mem dependence unit. (Count)
system.cpu.MemDepUnit__0.insertedStores       6456369                       # Number of stores inserted to the mem dependence unit. (Count)
system.cpu.MemDepUnit__0.conflictingLoads      3412815                       # Number of conflicting loads. (Count)
system.cpu.MemDepUnit__0.conflictingStores      2266184                       # Number of conflicting stores. (Count)
system.cpu.MemDepUnit__1.insertedLoads              0                       # Number of loads inserted to the mem dependence unit. (Count)
system.cpu.MemDepUnit__1.insertedStores             0                       # Number of stores inserted to the mem dependence unit. (Count)
system.cpu.MemDepUnit__1.conflictingLoads            0                       # Number of conflicting loads. (Count)
system.cpu.MemDepUnit__1.conflictingStores            0                       # Number of conflicting stores. (Count)
system.cpu.MemDepUnit__2.insertedLoads              0                       # Number of loads inserted to the mem dependence unit. (Count)
system.cpu.MemDepUnit__2.insertedStores             0                       # Number of stores inserted to the mem dependence unit. (Count)
system.cpu.MemDepUnit__2.conflictingLoads            0                       # Number of conflicting loads. (Count)
system.cpu.MemDepUnit__2.conflictingStores            0                       # Number of conflicting stores. (Count)
system.cpu.MemDepUnit__3.insertedLoads              0                       # Number of loads inserted to the mem dependence unit. (Count)
system.cpu.MemDepUnit__3.insertedStores             0                       # Number of stores inserted to the mem dependence unit. (Count)
system.cpu.MemDepUnit__3.conflictingLoads            0                       # Number of conflicting loads. (Count)
system.cpu.MemDepUnit__3.conflictingStores            0                       # Number of conflicting stores. (Count)
system.cpu.branchPred.lookups_0::NoBranch         1596      0.03%      0.03% # Number of BP lookups (Count)
system.cpu.branchPred.lookups_0::Return         38219      0.62%      0.65% # Number of BP lookups (Count)
system.cpu.branchPred.lookups_0::CallDirect        42354      0.69%      1.33% # Number of BP lookups (Count)
system.cpu.branchPred.lookups_0::CallIndirect         1162      0.02%      1.35% # Number of BP lookups (Count)
system.cpu.branchPred.lookups_0::DirectCond      6002959     97.50%     98.86% # Number of BP lookups (Count)
system.cpu.branchPred.lookups_0::DirectUncond        61006      0.99%     99.85% # Number of BP lookups (Count)
system.cpu.branchPred.lookups_0::IndirectCond            0      0.00%     99.85% # Number of BP lookups (Count)
system.cpu.branchPred.lookups_0::IndirectUncond         9394      0.15%    100.00% # Number of BP lookups (Count)
system.cpu.branchPred.lookups_0::total        6156690                       # Number of BP lookups (Count)
system.cpu.branchPred.squashes_0::NoBranch         1349      1.10%      1.10% # Number of branches that got squashed (completely removed) as an earlier branch was mispredicted. (Count)
system.cpu.branchPred.squashes_0::Return         1550      1.27%      2.37% # Number of branches that got squashed (completely removed) as an earlier branch was mispredicted. (Count)
system.cpu.branchPred.squashes_0::CallDirect         6298      5.16%      7.53% # Number of branches that got squashed (completely removed) as an earlier branch was mispredicted. (Count)
system.cpu.branchPred.squashes_0::CallIndirect          545      0.45%      7.98% # Number of branches that got squashed (completely removed) as an earlier branch was mispredicted. (Count)
system.cpu.branchPred.squashes_0::DirectCond       103187     84.51%     92.49% # Number of branches that got squashed (completely removed) as an earlier branch was mispredicted. (Count)
system.cpu.branchPred.squashes_0::DirectUncond         5236      4.29%     96.77% # Number of branches that got squashed (completely removed) as an earlier branch was mispredicted. (Count)
system.cpu.branchPred.squashes_0::IndirectCond            0      0.00%     96.77% # Number of branches that got squashed (completely removed) as an earlier branch was mispredicted. (Count)
system.cpu.branchPred.squashes_0::IndirectUncond         3938      3.23%    100.00% # Number of branches that got squashed (completely removed) as an earlier branch was mispredicted. (Count)
system.cpu.branchPred.squashes_0::total        122103                       # Number of branches that got squashed (completely removed) as an earlier branch was mispredicted. (Count)
system.cpu.branchPred.corrected_0::NoBranch          396      1.42%      1.42% # Number of branches that got corrected but not yet commited. Branches get corrected by decode or after execute. Also a branch misprediction can be detected out-of-order. Therefore, a corrected branch might not end up beeing committed in case an even earlier branch was mispredicted (Count)
system.cpu.branchPred.corrected_0::Return            1      0.00%      1.43% # Number of branches that got corrected but not yet commited. Branches get corrected by decode or after execute. Also a branch misprediction can be detected out-of-order. Therefore, a corrected branch might not end up beeing committed in case an even earlier branch was mispredicted (Count)
system.cpu.branchPred.corrected_0::CallDirect          778      2.80%      4.23% # Number of branches that got corrected but not yet commited. Branches get corrected by decode or after execute. Also a branch misprediction can be detected out-of-order. Therefore, a corrected branch might not end up beeing committed in case an even earlier branch was mispredicted (Count)
system.cpu.branchPred.corrected_0::CallIndirect          241      0.87%      5.09% # Number of branches that got corrected but not yet commited. Branches get corrected by decode or after execute. Also a branch misprediction can be detected out-of-order. Therefore, a corrected branch might not end up beeing committed in case an even earlier branch was mispredicted (Count)
system.cpu.branchPred.corrected_0::DirectCond        24401     87.77%     92.86% # Number of branches that got corrected but not yet commited. Branches get corrected by decode or after execute. Also a branch misprediction can be detected out-of-order. Therefore, a corrected branch might not end up beeing committed in case an even earlier branch was mispredicted (Count)
system.cpu.branchPred.corrected_0::DirectUncond          868      3.12%     95.99% # Number of branches that got corrected but not yet commited. Branches get corrected by decode or after execute. Also a branch misprediction can be detected out-of-order. Therefore, a corrected branch might not end up beeing committed in case an even earlier branch was mispredicted (Count)
system.cpu.branchPred.corrected_0::IndirectCond            0      0.00%     95.99% # Number of branches that got corrected but not yet commited. Branches get corrected by decode or after execute. Also a branch misprediction can be detected out-of-order. Therefore, a corrected branch might not end up beeing committed in case an even earlier branch was mispredicted (Count)
system.cpu.branchPred.corrected_0::IndirectUncond         1116      4.01%    100.00% # Number of branches that got corrected but not yet commited. Branches get corrected by decode or after execute. Also a branch misprediction can be detected out-of-order. Therefore, a corrected branch might not end up beeing committed in case an even earlier branch was mispredicted (Count)
system.cpu.branchPred.corrected_0::total        27801                       # Number of branches that got corrected but not yet commited. Branches get corrected by decode or after execute. Also a branch misprediction can be detected out-of-order. Therefore, a corrected branch might not end up beeing committed in case an even earlier branch was mispredicted (Count)
system.cpu.branchPred.earlyResteers_0::NoBranch            0                       # Number of branches that got redirected after decode. (Count)
system.cpu.branchPred.earlyResteers_0::Return            0                       # Number of branches that got redirected after decode. (Count)
system.cpu.branchPred.earlyResteers_0::CallDirect            0                       # Number of branches that got redirected after decode. (Count)
system.cpu.branchPred.earlyResteers_0::CallIndirect            0                       # Number of branches that got redirected after decode. (Count)
system.cpu.branchPred.earlyResteers_0::DirectCond            0                       # Number of branches that got redirected after decode. (Count)
system.cpu.branchPred.earlyResteers_0::DirectUncond            0                       # Number of branches that got redirected after decode. (Count)
system.cpu.branchPred.earlyResteers_0::IndirectCond            0                       # Number of branches that got redirected after decode. (Count)
system.cpu.branchPred.earlyResteers_0::IndirectUncond            0                       # Number of branches that got redirected after decode. (Count)
system.cpu.branchPred.earlyResteers_0::total            0                       # Number of branches that got redirected after decode. (Count)
system.cpu.branchPred.committed_0::NoBranch          247      0.00%      0.00% # Number of branches finally committed  (Count)
system.cpu.branchPred.committed_0::Return        36668      0.61%      0.61% # Number of branches finally committed  (Count)
system.cpu.branchPred.committed_0::CallDirect        36056      0.60%      1.21% # Number of branches finally committed  (Count)
system.cpu.branchPred.committed_0::CallIndirect          617      0.01%      1.22% # Number of branches finally committed  (Count)
system.cpu.branchPred.committed_0::DirectCond      5899772     97.77%     98.99% # Number of branches finally committed  (Count)
system.cpu.branchPred.committed_0::DirectUncond        55770      0.92%     99.91% # Number of branches finally committed  (Count)
system.cpu.branchPred.committed_0::IndirectCond            0      0.00%     99.91% # Number of branches finally committed  (Count)
system.cpu.branchPred.committed_0::IndirectUncond         5456      0.09%    100.00% # Number of branches finally committed  (Count)
system.cpu.branchPred.committed_0::total      6034586                       # Number of branches finally committed  (Count)
system.cpu.branchPred.mispredicted_0::NoBranch          247      0.98%      0.98% # Number of committed branches that were mispredicted. (Count)
system.cpu.branchPred.mispredicted_0::Return            0      0.00%      0.98% # Number of committed branches that were mispredicted. (Count)
system.cpu.branchPred.mispredicted_0::CallDirect          550      2.18%      3.16% # Number of committed branches that were mispredicted. (Count)
system.cpu.branchPred.mispredicted_0::CallIndirect          226      0.90%      4.06% # Number of committed branches that were mispredicted. (Count)
system.cpu.branchPred.mispredicted_0::DirectCond        22445     89.09%     93.15% # Number of committed branches that were mispredicted. (Count)
system.cpu.branchPred.mispredicted_0::DirectUncond          627      2.49%     95.64% # Number of committed branches that were mispredicted. (Count)
system.cpu.branchPred.mispredicted_0::IndirectCond            0      0.00%     95.64% # Number of committed branches that were mispredicted. (Count)
system.cpu.branchPred.mispredicted_0::IndirectUncond         1098      4.36%    100.00% # Number of committed branches that were mispredicted. (Count)
system.cpu.branchPred.mispredicted_0::total        25193                       # Number of committed branches that were mispredicted. (Count)
system.cpu.branchPred.targetProvider_0::NoTarget       489995      7.96%      7.96% # The component providing the target for taken branches (Count)
system.cpu.branchPred.targetProvider_0::BTB      5623423     91.34%     99.30% # The component providing the target for taken branches (Count)
system.cpu.branchPred.targetProvider_0::RAS        38219      0.62%     99.92% # The component providing the target for taken branches (Count)
system.cpu.branchPred.targetProvider_0::Indirect         5053      0.08%    100.00% # The component providing the target for taken branches (Count)
system.cpu.branchPred.targetProvider_0::total      6156690                       # The component providing the target for taken branches (Count)
system.cpu.branchPred.targetWrong_0::NoBranch        11373     48.02%     48.02% # Number of branches where the target was incorrect or not available at prediction time. (Count)
system.cpu.branchPred.targetWrong_0::Return        12170     51.38%     99.40% # Number of branches where the target was incorrect or not available at prediction time. (Count)
system.cpu.branchPred.targetWrong_0::CallDirect            1      0.00%     99.41% # Number of branches where the target was incorrect or not available at prediction time. (Count)
system.cpu.branchPred.targetWrong_0::CallIndirect          140      0.59%    100.00% # Number of branches where the target was incorrect or not available at prediction time. (Count)
system.cpu.branchPred.targetWrong_0::DirectCond            0      0.00%    100.00% # Number of branches where the target was incorrect or not available at prediction time. (Count)
system.cpu.branchPred.targetWrong_0::DirectUncond            0      0.00%    100.00% # Number of branches where the target was incorrect or not available at prediction time. (Count)
system.cpu.branchPred.targetWrong_0::IndirectCond            0      0.00%    100.00% # Number of branches where the target was incorrect or not available at prediction time. (Count)
system.cpu.branchPred.targetWrong_0::IndirectUncond            0      0.00%    100.00% # Number of branches where the target was incorrect or not available at prediction time. (Count)
system.cpu.branchPred.targetWrong_0::total        23684                       # Number of branches where the target was incorrect or not available at prediction time. (Count)
system.cpu.branchPred.condPredicted           6004555                       # Number of conditional branches predicted (Count)
system.cpu.branchPred.condPredictedTaken      5524066                       # Number of conditional branches predicted as taken (Count)
system.cpu.branchPred.condIncorrect             27801                       # Number of conditional branches incorrect (Count)
system.cpu.branchPred.predTakenBTBMiss           1761                       # Number of branches predicted taken but missed in BTB (Count)
system.cpu.branchPred.NotTakenMispredicted        14439                       # Number branches predicted 'not taken' but turned out to be taken (Count)
system.cpu.branchPred.TakenMispredicted         13362                       # Number branches predicted taken but are actually not taken (Count)
system.cpu.branchPred.BTBLookups              6156690                       # Number of BTB lookups (Count)
system.cpu.branchPred.BTBUpdates                12685                       # Number of BTB updates (Count)
system.cpu.branchPred.BTBHits                 5833453                       # Number of BTB hits (Count)
system.cpu.branchPred.BTBHitRatio            0.947498                       # BTB Hit Ratio (Ratio)
system.cpu.branchPred.BTBMispredicted            2643                       # Number BTB mispredictions. No target found or target wrong (Count)
system.cpu.branchPred.indirectLookups           10556                       # Number of indirect predictor lookups. (Count)
system.cpu.branchPred.indirectHits               5053                       # Number of indirect target hits. (Count)
system.cpu.branchPred.indirectMisses             5503                       # Number of indirect misses. (Count)
system.cpu.branchPred.indirectMispredicted            0                       # Number of mispredicted indirect branches. (Count)
system.cpu.branchPred.btb.lookups::NoBranch         1596      0.03%      0.03% # Number of BTB lookups (Count)
system.cpu.branchPred.btb.lookups::Return        38219      0.62%      0.65% # Number of BTB lookups (Count)
system.cpu.branchPred.btb.lookups::CallDirect        42354      0.69%      1.33% # Number of BTB lookups (Count)
system.cpu.branchPred.btb.lookups::CallIndirect         1162      0.02%      1.35% # Number of BTB lookups (Count)
system.cpu.branchPred.btb.lookups::DirectCond      6002959     97.50%     98.86% # Number of BTB lookups (Count)
system.cpu.branchPred.btb.lookups::DirectUncond        61006      0.99%     99.85% # Number of BTB lookups (Count)
system.cpu.branchPred.btb.lookups::IndirectCond            0      0.00%     99.85% # Number of BTB lookups (Count)
system.cpu.branchPred.btb.lookups::IndirectUncond         9394      0.15%    100.00% # Number of BTB lookups (Count)
system.cpu.branchPred.btb.lookups::total      6156690                       # Number of BTB lookups (Count)
system.cpu.branchPred.btb.misses::NoBranch          296      0.09%      0.09% # Number of BTB misses (Count)
system.cpu.branchPred.btb.misses::Return        38219     11.82%     11.92% # Number of BTB misses (Count)
system.cpu.branchPred.btb.misses::CallDirect         1133      0.35%     12.27% # Number of BTB misses (Count)
system.cpu.branchPred.btb.misses::CallIndirect         1161      0.36%     12.63% # Number of BTB misses (Count)
system.cpu.branchPred.btb.misses::DirectCond       272186     84.21%     96.83% # Number of BTB misses (Count)
system.cpu.branchPred.btb.misses::DirectUncond          848      0.26%     97.09% # Number of BTB misses (Count)
system.cpu.branchPred.btb.misses::IndirectCond            0      0.00%     97.09% # Number of BTB misses (Count)
system.cpu.branchPred.btb.misses::IndirectUncond         9394      2.91%    100.00% # Number of BTB misses (Count)
system.cpu.branchPred.btb.misses::total        323237                       # Number of BTB misses (Count)
system.cpu.branchPred.btb.updates::NoBranch            0      0.00%      0.00% # Number of BTB updates (Count)
system.cpu.branchPred.btb.updates::Return            0      0.00%      0.00% # Number of BTB updates (Count)
system.cpu.branchPred.btb.updates::CallDirect          778      6.13%      6.13% # Number of BTB updates (Count)
system.cpu.branchPred.btb.updates::CallIndirect            0      0.00%      6.13% # Number of BTB updates (Count)
system.cpu.branchPred.btb.updates::DirectCond        11039     87.02%     93.16% # Number of BTB updates (Count)
system.cpu.branchPred.btb.updates::DirectUncond          868      6.84%    100.00% # Number of BTB updates (Count)
system.cpu.branchPred.btb.updates::IndirectCond            0      0.00%    100.00% # Number of BTB updates (Count)
system.cpu.branchPred.btb.updates::IndirectUncond            0      0.00%    100.00% # Number of BTB updates (Count)
system.cpu.branchPred.btb.updates::total        12685                       # Number of BTB updates (Count)
system.cpu.branchPred.btb.mispredict::NoBranch            0      0.00%      0.00% # Number of BTB mispredictions. No target found or target wrong. (Count)
system.cpu.branchPred.btb.mispredict::Return            0      0.00%      0.00% # Number of BTB mispredictions. No target found or target wrong. (Count)
system.cpu.branchPred.btb.mispredict::CallDirect          778      6.13%      6.13% # Number of BTB mispredictions. No target found or target wrong. (Count)
system.cpu.branchPred.btb.mispredict::CallIndirect            0      0.00%      6.13% # Number of BTB mispredictions. No target found or target wrong. (Count)
system.cpu.branchPred.btb.mispredict::DirectCond        11039     87.02%     93.16% # Number of BTB mispredictions. No target found or target wrong. (Count)
system.cpu.branchPred.btb.mispredict::DirectUncond          868      6.84%    100.00% # Number of BTB mispredictions. No target found or target wrong. (Count)
system.cpu.branchPred.btb.mispredict::IndirectCond            0      0.00%    100.00% # Number of BTB mispredictions. No target found or target wrong. (Count)
system.cpu.branchPred.btb.mispredict::IndirectUncond            0      0.00%    100.00% # Number of BTB mispredictions. No target found or target wrong. (Count)
system.cpu.branchPred.btb.mispredict::total        12685                       # Number of BTB mispredictions. No target found or target wrong. (Count)
system.cpu.branchPred.btb.power_state.pwrStateResidencyTicks::UNDEFINED 1147856729531                       # Cumulative time (in ticks) in various power states (Tick)
system.cpu.branchPred.indirectBranchPred.lookups        10556                       # Number of lookups (Count)
system.cpu.branchPred.indirectBranchPred.hits         5053                       # Number of hits of a tag (Count)
system.cpu.branchPred.indirectBranchPred.misses         5503                       # Number of misses (Count)
system.cpu.branchPred.indirectBranchPred.targetRecords         1357                       # Number of targets that where recorded/installed in the cache (Count)
system.cpu.branchPred.indirectBranchPred.indirectRecords        11913                       # Number of indirect branches/calls recorded in the indirect hist (Count)
system.cpu.branchPred.indirectBranchPred.speculativeOverflows            0                       # Number of times more than the allowed capacity for speculative branches/calls where in flight and destroy the path history (Count)
system.cpu.branchPred.ras.pushes                45066                       # Number of times a PC was pushed onto the RAS (Count)
system.cpu.branchPred.ras.pops                  45062                       # Number of times a PC was poped from the RAS (Count)
system.cpu.branchPred.ras.squashes               8393                       # Number of times the stack operation was squashed due to wrong speculation. (Count)
system.cpu.branchPred.ras.used                  36668                       # Number of times the RAS is the provider (Count)
system.cpu.branchPred.ras.correct               36668                       # Number of times the RAS is the provider and the prediction is correct (Count)
system.cpu.branchPred.ras.incorrect                 0                       # Number of times the RAS is the provider and the prediction is wrong (Count)
system.cpu.commit.commitSquashedInsts          742390                       # The number of squashed insts skipped by commit (Count)
system.cpu.commit.commitNonSpecStalls            2312                       # The number of times commit has been forced to stall to communicate backwards (Count)
system.cpu.commit.branchMispredicts             25357                       # The number of times a branch was mispredicted (Count)
system.cpu.commit.numCommittedDist::samples     85902335                       # Number of insts commited each cycle (Count)
system.cpu.commit.numCommittedDist::mean     0.873634                       # Number of insts commited each cycle (Count)
system.cpu.commit.numCommittedDist::stdev     1.851439                       # Number of insts commited each cycle (Count)
system.cpu.commit.numCommittedDist::underflows            0      0.00%      0.00% # Number of insts commited each cycle (Count)
system.cpu.commit.numCommittedDist::0        54765575     63.75%     63.75% # Number of insts commited each cycle (Count)
system.cpu.commit.numCommittedDist::1        19488047     22.69%     86.44% # Number of insts commited each cycle (Count)
system.cpu.commit.numCommittedDist::2         3072295      3.58%     90.02% # Number of insts commited each cycle (Count)
system.cpu.commit.numCommittedDist::3         3053522      3.55%     93.57% # Number of insts commited each cycle (Count)
system.cpu.commit.numCommittedDist::4          289253      0.34%     93.91% # Number of insts commited each cycle (Count)
system.cpu.commit.numCommittedDist::5          406350      0.47%     94.38% # Number of insts commited each cycle (Count)
system.cpu.commit.numCommittedDist::6          163352      0.19%     94.57% # Number of insts commited each cycle (Count)
system.cpu.commit.numCommittedDist::7         1226438      1.43%     96.00% # Number of insts commited each cycle (Count)
system.cpu.commit.numCommittedDist::8         3437503      4.00%    100.00% # Number of insts commited each cycle (Count)
system.cpu.commit.numCommittedDist::overflows            0      0.00%    100.00% # Number of insts commited each cycle (Count)
system.cpu.commit.numCommittedDist::min_value            0                       # Number of insts commited each cycle (Count)
system.cpu.commit.numCommittedDist::max_value            8                       # Number of insts commited each cycle (Count)
system.cpu.commit.numCommittedDist::total     85902335                       # Number of insts commited each cycle (Count)
system.cpu.commit.amos                              0                       # Number of atomic instructions committed (Count)
system.cpu.commit.membars                        1018                       # Number of memory barriers committed (Count)
system.cpu.commit.functionCalls                 36673                       # Number of function calls committed. (Count)
system.cpu.commit.committedInstType_0::No_OpClass        51288      0.07%      0.07% # Class of committed instruction (Count)
system.cpu.commit.committedInstType_0::IntAlu     58049959     77.35%     77.42% # Class of committed instruction (Count)
system.cpu.commit.committedInstType_0::IntMult          348      0.00%     77.42% # Class of committed instruction (Count)
system.cpu.commit.committedInstType_0::IntDiv        42998      0.06%     77.48% # Class of committed instruction (Count)
system.cpu.commit.committedInstType_0::FloatAdd         8759      0.01%     77.49% # Class of committed instruction (Count)
system.cpu.commit.committedInstType_0::FloatCmp            0      0.00%     77.49% # Class of committed instruction (Count)
system.cpu.commit.committedInstType_0::FloatCvt         1376      0.00%     77.49% # Class of committed instruction (Count)
system.cpu.commit.committedInstType_0::FloatMult            0      0.00%     77.49% # Class of committed instruction (Count)
system.cpu.commit.committedInstType_0::FloatMultAcc            0      0.00%     77.49% # Class of committed instruction (Count)
system.cpu.commit.committedInstType_0::FloatDiv            0      0.00%     77.49% # Class of committed instruction (Count)
system.cpu.commit.committedInstType_0::FloatMisc            0      0.00%     77.49% # Class of committed instruction (Count)
system.cpu.commit.committedInstType_0::FloatSqrt            0      0.00%     77.49% # Class of committed instruction (Count)
system.cpu.commit.committedInstType_0::SimdAdd         6794      0.01%     77.50% # Class of committed instruction (Count)
system.cpu.commit.committedInstType_0::SimdAddAcc            0      0.00%     77.50% # Class of committed instruction (Count)
system.cpu.commit.committedInstType_0::SimdAlu        32734      0.04%     77.54% # Class of committed instruction (Count)
system.cpu.commit.committedInstType_0::SimdCmp           12      0.00%     77.54% # Class of committed instruction (Count)
system.cpu.commit.committedInstType_0::SimdCvt        13570      0.02%     77.56% # Class of committed instruction (Count)
system.cpu.commit.committedInstType_0::SimdMisc        15322      0.02%     77.58% # Class of committed instruction (Count)
system.cpu.commit.committedInstType_0::SimdMult            0      0.00%     77.58% # Class of committed instruction (Count)
system.cpu.commit.committedInstType_0::SimdMultAcc            0      0.00%     77.58% # Class of committed instruction (Count)
system.cpu.commit.committedInstType_0::SimdMatMultAcc            0      0.00%     77.58% # Class of committed instruction (Count)
system.cpu.commit.committedInstType_0::SimdShift         1717      0.00%     77.58% # Class of committed instruction (Count)
system.cpu.commit.committedInstType_0::SimdShiftAcc            0      0.00%     77.58% # Class of committed instruction (Count)
system.cpu.commit.committedInstType_0::SimdDiv            0      0.00%     77.58% # Class of committed instruction (Count)
system.cpu.commit.committedInstType_0::SimdSqrt            0      0.00%     77.58% # Class of committed instruction (Count)
system.cpu.commit.committedInstType_0::SimdFloatAdd          364      0.00%     77.58% # Class of committed instruction (Count)
system.cpu.commit.committedInstType_0::SimdFloatAlu            0      0.00%     77.58% # Class of committed instruction (Count)
system.cpu.commit.committedInstType_0::SimdFloatCmp            0      0.00%     77.58% # Class of committed instruction (Count)
system.cpu.commit.committedInstType_0::SimdFloatCvt         2180      0.00%     77.59% # Class of committed instruction (Count)
system.cpu.commit.committedInstType_0::SimdFloatDiv          122      0.00%     77.59% # Class of committed instruction (Count)
system.cpu.commit.committedInstType_0::SimdFloatMisc            0      0.00%     77.59% # Class of committed instruction (Count)
system.cpu.commit.committedInstType_0::SimdFloatMult            0      0.00%     77.59% # Class of committed instruction (Count)
system.cpu.commit.committedInstType_0::SimdFloatMultAcc            0      0.00%     77.59% # Class of committed instruction (Count)
system.cpu.commit.committedInstType_0::SimdFloatMatMultAcc            0      0.00%     77.59% # Class of committed instruction (Count)
system.cpu.commit.committedInstType_0::SimdFloatSqrt          242      0.00%     77.59% # Class of committed instruction (Count)
system.cpu.commit.committedInstType_0::SimdReduceAdd            0      0.00%     77.59% # Class of committed instruction (Count)
system.cpu.commit.committedInstType_0::SimdReduceAlu            0      0.00%     77.59% # Class of committed instruction (Count)
system.cpu.commit.committedInstType_0::SimdReduceCmp            0      0.00%     77.59% # Class of committed instruction (Count)
system.cpu.commit.committedInstType_0::SimdFloatReduceAdd            0      0.00%     77.59% # Class of committed instruction (Count)
system.cpu.commit.committedInstType_0::SimdFloatReduceCmp            0      0.00%     77.59% # Class of committed instruction (Count)
system.cpu.commit.committedInstType_0::SimdAes            0      0.00%     77.59% # Class of committed instruction (Count)
system.cpu.commit.committedInstType_0::SimdAesMix            0      0.00%     77.59% # Class of committed instruction (Count)
system.cpu.commit.committedInstType_0::SimdSha1Hash            0      0.00%     77.59% # Class of committed instruction (Count)
system.cpu.commit.committedInstType_0::SimdSha1Hash2            0      0.00%     77.59% # Class of committed instruction (Count)
system.cpu.commit.committedInstType_0::SimdSha256Hash            0      0.00%     77.59% # Class of committed instruction (Count)
system.cpu.commit.committedInstType_0::SimdSha256Hash2            0      0.00%     77.59% # Class of committed instruction (Count)
system.cpu.commit.committedInstType_0::SimdShaSigma2            0      0.00%     77.59% # Class of committed instruction (Count)
system.cpu.commit.committedInstType_0::SimdShaSigma3            0      0.00%     77.59% # Class of committed instruction (Count)
system.cpu.commit.committedInstType_0::SimdPredAlu            0      0.00%     77.59% # Class of committed instruction (Count)
system.cpu.commit.committedInstType_0::Matrix            0      0.00%     77.59% # Class of committed instruction (Count)
system.cpu.commit.committedInstType_0::MatrixMov            0      0.00%     77.59% # Class of committed instruction (Count)
system.cpu.commit.committedInstType_0::MatrixOP            0      0.00%     77.59% # Class of committed instruction (Count)
system.cpu.commit.committedInstType_0::MemRead     10347536     13.79%     91.38% # Class of committed instruction (Count)
system.cpu.commit.committedInstType_0::MemWrite      6357562      8.47%     99.85% # Class of committed instruction (Count)
system.cpu.commit.committedInstType_0::FloatMemRead        51014      0.07%     99.92% # Class of committed instruction (Count)
system.cpu.commit.committedInstType_0::FloatMemWrite        63270      0.08%    100.00% # Class of committed instruction (Count)
system.cpu.commit.committedInstType_0::IprAccess            0      0.00%    100.00% # Class of committed instruction (Count)
system.cpu.commit.committedInstType_0::InstPrefetch            0      0.00%    100.00% # Class of committed instruction (Count)
system.cpu.commit.committedInstType_0::SimdUnitStrideLoad            0      0.00%    100.00% # Class of committed instruction (Count)
system.cpu.commit.committedInstType_0::SimdUnitStrideStore            0      0.00%    100.00% # Class of committed instruction (Count)
system.cpu.commit.committedInstType_0::SimdUnitStrideMaskLoad            0      0.00%    100.00% # Class of committed instruction (Count)
system.cpu.commit.committedInstType_0::SimdUnitStrideMaskStore            0      0.00%    100.00% # Class of committed instruction (Count)
system.cpu.commit.committedInstType_0::SimdStridedLoad            0      0.00%    100.00% # Class of committed instruction (Count)
system.cpu.commit.committedInstType_0::SimdStridedStore            0      0.00%    100.00% # Class of committed instruction (Count)
system.cpu.commit.committedInstType_0::SimdIndexedLoad            0      0.00%    100.00% # Class of committed instruction (Count)
system.cpu.commit.committedInstType_0::SimdIndexedStore            0      0.00%    100.00% # Class of committed instruction (Count)
system.cpu.commit.committedInstType_0::SimdWholeRegisterLoad            0      0.00%    100.00% # Class of committed instruction (Count)
system.cpu.commit.committedInstType_0::SimdWholeRegisterStore            0      0.00%    100.00% # Class of committed instruction (Count)
system.cpu.commit.committedInstType_0::SimdUnitStrideFaultOnlyFirstLoad            0      0.00%    100.00% # Class of committed instruction (Count)
system.cpu.commit.committedInstType_0::SimdUnitStrideSegmentedLoad            0      0.00%    100.00% # Class of committed instruction (Count)
system.cpu.commit.committedInstType_0::SimdUnitStrideSegmentedStore            0      0.00%    100.00% # Class of committed instruction (Count)
system.cpu.commit.committedInstType_0::SimdExt            0      0.00%    100.00% # Class of committed instruction (Count)
system.cpu.commit.committedInstType_0::SimdFloatExt            0      0.00%    100.00% # Class of committed instruction (Count)
system.cpu.commit.committedInstType_0::SimdConfig            0      0.00%    100.00% # Class of committed instruction (Count)
system.cpu.commit.committedInstType_0::total     75047167                       # Class of committed instruction (Count)
system.cpu.commit.commitEligibleSamples       3437503                       # number cycles where commit BW limit reached (Cycle)
system.cpu.commitStats0.numInsts             46536489                       # Number of instructions committed (thread level) (Count)
system.cpu.commitStats0.numOps               75047167                       # Number of ops (including micro ops) committed (thread level) (Count)
system.cpu.commitStats0.numInstsNotNOP       46536489                       # Number of instructions committed excluding NOPs or prefetches (Count)
system.cpu.commitStats0.numOpsNotNOP         75047167                       # Number of Ops (including micro ops) Simulated (Count)
system.cpu.commitStats0.cpi                  1.849976                       # CPI: cycles per instruction (thread level) ((Cycle/Count))
system.cpu.commitStats0.ipc                  0.540547                       # IPC: instructions per cycle (thread level) ((Count/Cycle))
system.cpu.commitStats0.numMemRefs           16819382                       # Number of memory references committed (Count)
system.cpu.commitStats0.numFpInsts             203339                       # Number of float instructions (Count)
system.cpu.commitStats0.numIntInsts          74838875                       # Number of integer instructions (Count)
system.cpu.commitStats0.numLoadInsts         10398550                       # Number of load instructions (Count)
system.cpu.commitStats0.numStoreInsts         6420832                       # Number of store instructions (Count)
system.cpu.commitStats0.numVecInsts                 0                       # Number of vector instructions (Count)
system.cpu.commitStats0.committedInstType::No_OpClass        51288      0.07%      0.07% # Class of committed instruction. (Count)
system.cpu.commitStats0.committedInstType::IntAlu     58049959     77.35%     77.42% # Class of committed instruction. (Count)
system.cpu.commitStats0.committedInstType::IntMult          348      0.00%     77.42% # Class of committed instruction. (Count)
system.cpu.commitStats0.committedInstType::IntDiv        42998      0.06%     77.48% # Class of committed instruction. (Count)
system.cpu.commitStats0.committedInstType::FloatAdd         8759      0.01%     77.49% # Class of committed instruction. (Count)
system.cpu.commitStats0.committedInstType::FloatCmp            0      0.00%     77.49% # Class of committed instruction. (Count)
system.cpu.commitStats0.committedInstType::FloatCvt         1376      0.00%     77.49% # Class of committed instruction. (Count)
system.cpu.commitStats0.committedInstType::FloatMult            0      0.00%     77.49% # Class of committed instruction. (Count)
system.cpu.commitStats0.committedInstType::FloatMultAcc            0      0.00%     77.49% # Class of committed instruction. (Count)
system.cpu.commitStats0.committedInstType::FloatDiv            0      0.00%     77.49% # Class of committed instruction. (Count)
system.cpu.commitStats0.committedInstType::FloatMisc            0      0.00%     77.49% # Class of committed instruction. (Count)
system.cpu.commitStats0.committedInstType::FloatSqrt            0      0.00%     77.49% # Class of committed instruction. (Count)
system.cpu.commitStats0.committedInstType::SimdAdd         6794      0.01%     77.50% # Class of committed instruction. (Count)
system.cpu.commitStats0.committedInstType::SimdAddAcc            0      0.00%     77.50% # Class of committed instruction. (Count)
system.cpu.commitStats0.committedInstType::SimdAlu        32734      0.04%     77.54% # Class of committed instruction. (Count)
system.cpu.commitStats0.committedInstType::SimdCmp           12      0.00%     77.54% # Class of committed instruction. (Count)
system.cpu.commitStats0.committedInstType::SimdCvt        13570      0.02%     77.56% # Class of committed instruction. (Count)
system.cpu.commitStats0.committedInstType::SimdMisc        15322      0.02%     77.58% # Class of committed instruction. (Count)
system.cpu.commitStats0.committedInstType::SimdMult            0      0.00%     77.58% # Class of committed instruction. (Count)
system.cpu.commitStats0.committedInstType::SimdMultAcc            0      0.00%     77.58% # Class of committed instruction. (Count)
system.cpu.commitStats0.committedInstType::SimdMatMultAcc            0      0.00%     77.58% # Class of committed instruction. (Count)
system.cpu.commitStats0.committedInstType::SimdShift         1717      0.00%     77.58% # Class of committed instruction. (Count)
system.cpu.commitStats0.committedInstType::SimdShiftAcc            0      0.00%     77.58% # Class of committed instruction. (Count)
system.cpu.commitStats0.committedInstType::SimdDiv            0      0.00%     77.58% # Class of committed instruction. (Count)
system.cpu.commitStats0.committedInstType::SimdSqrt            0      0.00%     77.58% # Class of committed instruction. (Count)
system.cpu.commitStats0.committedInstType::SimdFloatAdd          364      0.00%     77.58% # Class of committed instruction. (Count)
system.cpu.commitStats0.committedInstType::SimdFloatAlu            0      0.00%     77.58% # Class of committed instruction. (Count)
system.cpu.commitStats0.committedInstType::SimdFloatCmp            0      0.00%     77.58% # Class of committed instruction. (Count)
system.cpu.commitStats0.committedInstType::SimdFloatCvt         2180      0.00%     77.59% # Class of committed instruction. (Count)
system.cpu.commitStats0.committedInstType::SimdFloatDiv          122      0.00%     77.59% # Class of committed instruction. (Count)
system.cpu.commitStats0.committedInstType::SimdFloatMisc            0      0.00%     77.59% # Class of committed instruction. (Count)
system.cpu.commitStats0.committedInstType::SimdFloatMult            0      0.00%     77.59% # Class of committed instruction. (Count)
system.cpu.commitStats0.committedInstType::SimdFloatMultAcc            0      0.00%     77.59% # Class of committed instruction. (Count)
system.cpu.commitStats0.committedInstType::SimdFloatMatMultAcc            0      0.00%     77.59% # Class of committed instruction. (Count)
system.cpu.commitStats0.committedInstType::SimdFloatSqrt          242      0.00%     77.59% # Class of committed instruction. (Count)
system.cpu.commitStats0.committedInstType::SimdReduceAdd            0      0.00%     77.59% # Class of committed instruction. (Count)
system.cpu.commitStats0.committedInstType::SimdReduceAlu            0      0.00%     77.59% # Class of committed instruction. (Count)
system.cpu.commitStats0.committedInstType::SimdReduceCmp            0      0.00%     77.59% # Class of committed instruction. (Count)
system.cpu.commitStats0.committedInstType::SimdFloatReduceAdd            0      0.00%     77.59% # Class of committed instruction. (Count)
system.cpu.commitStats0.committedInstType::SimdFloatReduceCmp            0      0.00%     77.59% # Class of committed instruction. (Count)
system.cpu.commitStats0.committedInstType::SimdAes            0      0.00%     77.59% # Class of committed instruction. (Count)
system.cpu.commitStats0.committedInstType::SimdAesMix            0      0.00%     77.59% # Class of committed instruction. (Count)
system.cpu.commitStats0.committedInstType::SimdSha1Hash            0      0.00%     77.59% # Class of committed instruction. (Count)
system.cpu.commitStats0.committedInstType::SimdSha1Hash2            0      0.00%     77.59% # Class of committed instruction. (Count)
system.cpu.commitStats0.committedInstType::SimdSha256Hash            0      0.00%     77.59% # Class of committed instruction. (Count)
system.cpu.commitStats0.committedInstType::SimdSha256Hash2            0      0.00%     77.59% # Class of committed instruction. (Count)
system.cpu.commitStats0.committedInstType::SimdShaSigma2            0      0.00%     77.59% # Class of committed instruction. (Count)
system.cpu.commitStats0.committedInstType::SimdShaSigma3            0      0.00%     77.59% # Class of committed instruction. (Count)
system.cpu.commitStats0.committedInstType::SimdPredAlu            0      0.00%     77.59% # Class of committed instruction. (Count)
system.cpu.commitStats0.committedInstType::Matrix            0      0.00%     77.59% # Class of committed instruction. (Count)
system.cpu.commitStats0.committedInstType::MatrixMov            0      0.00%     77.59% # Class of committed instruction. (Count)
system.cpu.commitStats0.committedInstType::MatrixOP            0      0.00%     77.59% # Class of committed instruction. (Count)
system.cpu.commitStats0.committedInstType::MemRead     10347536     13.79%     91.38% # Class of committed instruction. (Count)
system.cpu.commitStats0.committedInstType::MemWrite      6357562      8.47%     99.85% # Class of committed instruction. (Count)
system.cpu.commitStats0.committedInstType::FloatMemRead        51014      0.07%     99.92% # Class of committed instruction. (Count)
system.cpu.commitStats0.committedInstType::FloatMemWrite        63270      0.08%    100.00% # Class of committed instruction. (Count)
system.cpu.commitStats0.committedInstType::IprAccess            0      0.00%    100.00% # Class of committed instruction. (Count)
system.cpu.commitStats0.committedInstType::InstPrefetch            0      0.00%    100.00% # Class of committed instruction. (Count)
system.cpu.commitStats0.committedInstType::SimdUnitStrideLoad            0      0.00%    100.00% # Class of committed instruction. (Count)
system.cpu.commitStats0.committedInstType::SimdUnitStrideStore            0      0.00%    100.00% # Class of committed instruction. (Count)
system.cpu.commitStats0.committedInstType::SimdUnitStrideMaskLoad            0      0.00%    100.00% # Class of committed instruction. (Count)
system.cpu.commitStats0.committedInstType::SimdUnitStrideMaskStore            0      0.00%    100.00% # Class of committed instruction. (Count)
system.cpu.commitStats0.committedInstType::SimdStridedLoad            0      0.00%    100.00% # Class of committed instruction. (Count)
system.cpu.commitStats0.committedInstType::SimdStridedStore            0      0.00%    100.00% # Class of committed instruction. (Count)
system.cpu.commitStats0.committedInstType::SimdIndexedLoad            0      0.00%    100.00% # Class of committed instruction. (Count)
system.cpu.commitStats0.committedInstType::SimdIndexedStore            0      0.00%    100.00% # Class of committed instruction. (Count)
system.cpu.commitStats0.committedInstType::SimdWholeRegisterLoad            0      0.00%    100.00% # Class of committed instruction. (Count)
system.cpu.commitStats0.committedInstType::SimdWholeRegisterStore            0      0.00%    100.00% # Class of committed instruction. (Count)
system.cpu.commitStats0.committedInstType::SimdUnitStrideFaultOnlyFirstLoad            0      0.00%    100.00% # Class of committed instruction. (Count)
system.cpu.commitStats0.committedInstType::SimdUnitStrideSegmentedLoad            0      0.00%    100.00% # Class of committed instruction. (Count)
system.cpu.commitStats0.committedInstType::SimdUnitStrideSegmentedStore            0      0.00%    100.00% # Class of committed instruction. (Count)
system.cpu.commitStats0.committedInstType::SimdExt            0      0.00%    100.00% # Class of committed instruction. (Count)
system.cpu.commitStats0.committedInstType::SimdFloatExt            0      0.00%    100.00% # Class of committed instruction. (Count)
system.cpu.commitStats0.committedInstType::SimdConfig            0      0.00%    100.00% # Class of committed instruction. (Count)
system.cpu.commitStats0.committedInstType::total     75047167                       # Class of committed instruction. (Count)
system.cpu.commitStats0.committedControl::IsControl      6034586                       # Class of control type instructions committed (Count)
system.cpu.commitStats0.committedControl::IsDirectControl      5991598                       # Class of control type instructions committed (Count)
system.cpu.commitStats0.committedControl::IsIndirectControl        42741                       # Class of control type instructions committed (Count)
system.cpu.commitStats0.committedControl::IsCondControl      5899772                       # Class of control type instructions committed (Count)
system.cpu.commitStats0.committedControl::IsUncondControl       134567                       # Class of control type instructions committed (Count)
system.cpu.commitStats0.committedControl::IsCall        36673                       # Class of control type instructions committed (Count)
system.cpu.commitStats0.committedControl::IsReturn        36668                       # Class of control type instructions committed (Count)
system.cpu.decode.idleCycles                 11770057                       # Number of cycles decode is idle (Cycle)
system.cpu.decode.blockedCycles              64306728                       # Number of cycles decode is blocked (Cycle)
system.cpu.decode.runCycles                   2677880                       # Number of cycles decode is running (Cycle)
system.cpu.decode.unblockCycles               7230409                       # Number of cycles decode is unblocking (Cycle)
system.cpu.decode.squashCycles                  26824                       # Number of cycles decode is squashing (Cycle)
system.cpu.decode.branchResolved              5599224                       # Number of times decode resolved a branch (Count)
system.cpu.decode.branchMispred                  3054                       # Number of times decode detected a branch misprediction (Count)
system.cpu.decode.decodedInsts               75911582                       # Number of instructions handled by decode (Count)
system.cpu.decode.squashedInsts                 14867                       # Number of squashed instructions handled by decode (Count)
system.cpu.executeStats0.numInsts            77421404                       # Number of executed instructions (Count)
system.cpu.executeStats0.numNop                     0                       # Number of nop insts executed (Count)
system.cpu.executeStats0.numBranches          6067170                       # Number of branches executed (Count)
system.cpu.executeStats0.numLoadInsts        12353574                       # Number of load instructions executed (Count)
system.cpu.executeStats0.numStoreInsts        6444653                       # Number of stores executed (Count)
system.cpu.executeStats0.instRate            0.899293                       # Inst execution rate ((Count/Cycle))
system.cpu.executeStats0.numCCRegReads       43749731                       # Number of times the CC registers were read (Count)
system.cpu.executeStats0.numCCRegWrites      45551838                       # Number of times the CC registers were written (Count)
system.cpu.executeStats0.numFpRegReads         237170                       # Number of times the floating registers were read (Count)
system.cpu.executeStats0.numFpRegWrites        135799                       # Number of times the floating registers were written (Count)
system.cpu.executeStats0.numIntRegReads     115790448                       # Number of times the integer registers were read (Count)
system.cpu.executeStats0.numIntRegWrites     58032513                       # Number of times the integer registers were written (Count)
system.cpu.executeStats0.numMemRefs          18798227                       # Number of memory refs (Count)
system.cpu.executeStats0.numMiscRegReads     30829839                       # Number of times the Misc registers were read (Count)
system.cpu.executeStats0.numMiscRegWrites          774                       # Number of times the Misc registers were written (Count)
system.cpu.executeStats0.numVecAluAccesses            0                       # Number of vector alu accesses (Count)
system.cpu.executeStats0.numDiscardedOps            0                       # Number of ops (including micro ops) which were discarded before commit (Count)
system.cpu.fetch.predictedBranches            5666695                       # Number of branches that fetch has predicted taken (Count)
system.cpu.fetch.cycles                      77264326                       # Number of cycles fetch has run and was not squashing or blocked (Cycle)
system.cpu.fetch.squashCycles                   59584                       # Number of cycles fetch has spent squashing (Cycle)
system.cpu.fetch.miscStallCycles                 1693                       # Number of cycles fetch has spent waiting on interrupts, or bad addresses, or out of MSHRs (Cycle)
system.cpu.fetch.pendingTrapStallCycles          4730                       # Number of stall cycles due to pending traps (Cycle)
system.cpu.fetch.icacheWaitRetryStallCycles          272                       # Number of stall cycles due to full MSHR (Cycle)
[...]
system.mem_ctrl.dram.bwRead::cpu.data        48702185                       # Total read bandwidth from this memory ((Byte/Second))
system.mem_ctrl.dram.bwRead::total          250401603                       # Total read bandwidth from this memory ((Byte/Second))
system.mem_ctrl.dram.bwInstRead::cpu.inst    201699417                       # Instruction read bandwidth from this memory ((Byte/Second))
system.mem_ctrl.dram.bwInstRead::total      201699417                       # Instruction read bandwidth from this memory ((Byte/Second))
system.mem_ctrl.dram.bwWrite::cpu.data       19462571                       # Write bandwidth from this memory ((Byte/Second))
system.mem_ctrl.dram.bwWrite::total          19462571                       # Write bandwidth from this memory ((Byte/Second))
system.mem_ctrl.dram.bwTotal::cpu.inst      201699417                       # Total bandwidth to/from this memory ((Byte/Second))
system.mem_ctrl.dram.bwTotal::cpu.data       68164756                       # Total bandwidth to/from this memory ((Byte/Second))
system.mem_ctrl.dram.bwTotal::total         269864174                       # Total bandwidth to/from this memory ((Byte/Second))
system.mem_ctrl.dram.readBursts                 32864                       # Number of DRAM read bursts (Count)
system.mem_ctrl.dram.writeBursts                  494                       # Number of DRAM write bursts (Count)
system.mem_ctrl.dram.perBankRdBursts::0          1710                       # Per bank write bursts (Count)
system.mem_ctrl.dram.perBankRdBursts::1          1604                       # Per bank write bursts (Count)
system.mem_ctrl.dram.perBankRdBursts::2          2908                       # Per bank write bursts (Count)
system.mem_ctrl.dram.perBankRdBursts::3          2441                       # Per bank write bursts (Count)
system.mem_ctrl.dram.perBankRdBursts::4          1685                       # Per bank write bursts (Count)
system.mem_ctrl.dram.perBankRdBursts::5          1653                       # Per bank write bursts (Count)
system.mem_ctrl.dram.perBankRdBursts::6          1556                       # Per bank write bursts (Count)
system.mem_ctrl.dram.perBankRdBursts::7          2391                       # Per bank write bursts (Count)
system.mem_ctrl.dram.perBankRdBursts::8          1447                       # Per bank write bursts (Count)
system.mem_ctrl.dram.perBankRdBursts::9          1452                       # Per bank write bursts (Count)
system.mem_ctrl.dram.perBankRdBursts::10         4908                       # Per bank write bursts (Count)
system.mem_ctrl.dram.perBankRdBursts::11         2271                       # Per bank write bursts (Count)
system.mem_ctrl.dram.perBankRdBursts::12         2378                       # Per bank write bursts (Count)
system.mem_ctrl.dram.perBankRdBursts::13         1235                       # Per bank write bursts (Count)
system.mem_ctrl.dram.perBankRdBursts::14         1765                       # Per bank write bursts (Count)
system.mem_ctrl.dram.perBankRdBursts::15         1460                       # Per bank write bursts (Count)
system.mem_ctrl.dram.perBankWrBursts::0             0                       # Per bank write bursts (Count)
system.mem_ctrl.dram.perBankWrBursts::1             3                       # Per bank write bursts (Count)
system.mem_ctrl.dram.perBankWrBursts::2            15                       # Per bank write bursts (Count)
system.mem_ctrl.dram.perBankWrBursts::3            34                       # Per bank write bursts (Count)
system.mem_ctrl.dram.perBankWrBursts::4            10                       # Per bank write bursts (Count)
system.mem_ctrl.dram.perBankWrBursts::5             5                       # Per bank write bursts (Count)
system.mem_ctrl.dram.perBankWrBursts::6             1                       # Per bank write bursts (Count)
system.mem_ctrl.dram.perBankWrBursts::7             9                       # Per bank write bursts (Count)
system.mem_ctrl.dram.perBankWrBursts::8            15                       # Per bank write bursts (Count)
system.mem_ctrl.dram.perBankWrBursts::9            12                       # Per bank write bursts (Count)
system.mem_ctrl.dram.perBankWrBursts::10          253                       # Per bank write bursts (Count)
system.mem_ctrl.dram.perBankWrBursts::11           29                       # Per bank write bursts (Count)
system.mem_ctrl.dram.perBankWrBursts::12           19                       # Per bank write bursts (Count)
system.mem_ctrl.dram.perBankWrBursts::13            3                       # Per bank write bursts (Count)
system.mem_ctrl.dram.perBankWrBursts::14           55                       # Per bank write bursts (Count)
system.mem_ctrl.dram.perBankWrBursts::15           31                       # Per bank write bursts (Count)
system.mem_ctrl.dram.totQLat                284866798                       # Total ticks spent queuing (Tick)
system.mem_ctrl.dram.totBusLat              164320000                       # Total ticks spent in databus transfers (Tick)
system.mem_ctrl.dram.totMemAccLat           901066798                       # Total ticks spent from burst creation until serviced by the DRAM (Tick)
system.mem_ctrl.dram.avgQLat                  8668.05                       # Average queueing delay per DRAM burst ((Tick/Count))
system.mem_ctrl.dram.avgBusLat                5000.00                       # Average bus latency per DRAM burst ((Tick/Count))
system.mem_ctrl.dram.avgMemAccLat            27418.05                       # Average memory access latency per DRAM burst ((Tick/Count))
system.mem_ctrl.dram.readRowHits                28464                       # Number of row buffer hits during reads (Count)
system.mem_ctrl.dram.writeRowHits                 426                       # Number of row buffer hits during writes (Count)
system.mem_ctrl.dram.readRowHitRate             86.61                       # Row buffer hit rate for reads (Ratio)
system.mem_ctrl.dram.writeRowHitRate            86.23                       # Row buffer hit rate for writes (Ratio)
system.mem_ctrl.dram.bytesPerActivate::samples         4470                       # Bytes accessed per row activation (Byte)
system.mem_ctrl.dram.bytesPerActivate::mean   477.680537                       # Bytes accessed per row activation (Byte)
system.mem_ctrl.dram.bytesPerActivate::gmean   289.282757                       # Bytes accessed per row activation (Byte)
system.mem_ctrl.dram.bytesPerActivate::stdev   401.983184                       # Bytes accessed per row activation (Byte)
system.mem_ctrl.dram.bytesPerActivate::0-127         1037     23.20%     23.20% # Bytes accessed per row activation (Byte)
system.mem_ctrl.dram.bytesPerActivate::128-255          957     21.41%     44.61% # Bytes accessed per row activation (Byte)
system.mem_ctrl.dram.bytesPerActivate::256-383          404      9.04%     53.65% # Bytes accessed per row activation (Byte)
system.mem_ctrl.dram.bytesPerActivate::384-511          241      5.39%     59.04% # Bytes accessed per row activation (Byte)
system.mem_ctrl.dram.bytesPerActivate::512-639          180      4.03%     63.06% # Bytes accessed per row activation (Byte)
system.mem_ctrl.dram.bytesPerActivate::640-767          120      2.68%     65.75% # Bytes accessed per row activation (Byte)
system.mem_ctrl.dram.bytesPerActivate::768-895          139      3.11%     68.86% # Bytes accessed per row activation (Byte)
system.mem_ctrl.dram.bytesPerActivate::896-1023           84      1.88%     70.74% # Bytes accessed per row activation (Byte)
system.mem_ctrl.dram.bytesPerActivate::1024-1151         1308     29.26%    100.00% # Bytes accessed per row activation (Byte)
system.mem_ctrl.dram.bytesPerActivate::total         4470                       # Bytes accessed per row activation (Byte)
system.mem_ctrl.dram.dramBytesRead            2103296                       # Total bytes read (Byte)
system.mem_ctrl.dram.dramBytesWritten           31616                       # Total bytes written (Byte)
system.mem_ctrl.dram.avgRdBW              1093.656104                       # Average DRAM read bandwidth in MiBytes/s ((Byte/Second))
system.mem_ctrl.dram.avgWrBW                16.439451                       # Average DRAM write bandwidth in MiBytes/s ((Byte/Second))
system.mem_ctrl.dram.peakBW                  12800.00                       # Theoretical peak bandwidth in MiByte/s ((Byte/Second))
system.mem_ctrl.dram.busUtil                     8.67                       # Data bus utilization in percentage (Ratio)
system.mem_ctrl.dram.busUtilRead                 8.54                       # Data bus utilization in percentage for reads (Ratio)
system.mem_ctrl.dram.busUtilWrite                0.13                       # Data bus utilization in percentage for writes (Ratio)
system.mem_ctrl.dram.pageHitRate                86.61                       # Row buffer hit rate, read and write combined (Ratio)
system.mem_ctrl.dram.power_state.pwrStateResidencyTicks::UNDEFINED   1923178586                       # Cumulative time (in ticks) in various power states (Tick)
system.mem_ctrl.dram.rank0.actEnergy         15922200                       # Energy for activate commands per rank (pJ) (Joule)
system.mem_ctrl.dram.rank0.preEnergy          8466645                       # Energy for precharge commands per rank (pJ) (Joule)
system.mem_ctrl.dram.rank0.readEnergy       113868720                       # Energy for read commands per rank (pJ) (Joule)
system.mem_ctrl.dram.rank0.writeEnergy         401940                       # Energy for write commands per rank (pJ) (Joule)
system.mem_ctrl.dram.rank0.refreshEnergy 151816080.000000                       # Energy for refresh commands per rank (pJ) (Joule)
system.mem_ctrl.dram.rank0.actBackEnergy    751363170                       # Energy for active background per rank (pJ) (Joule)
system.mem_ctrl.dram.rank0.preBackEnergy    105773760                       # Energy for precharge background per rank (pJ) (Joule)
system.mem_ctrl.dram.rank0.actPowerDownEnergy            0                       # Energy for active power-down per rank (pJ) (Joule)
system.mem_ctrl.dram.rank0.prePowerDownEnergy            0                       # Energy for precharge power-down per rank (pJ) (Joule)
system.mem_ctrl.dram.rank0.selfRefreshEnergy            0                       # Energy for self refresh per rank (pJ) (Joule)
system.mem_ctrl.dram.rank0.totalEnergy     1147612515                       # Total energy per rank (pJ) (Joule)
system.mem_ctrl.dram.rank0.averagePower    596.726962                       # Core power per rank (mW) (Watt)
system.mem_ctrl.dram.rank0.totalIdleTime            0                       # Total Idle time Per DRAM Rank (Tick)
system.mem_ctrl.dram.rank0.pwrStateTime::IDLE    262916530                       # Time in different power states (Tick)
system.mem_ctrl.dram.rank0.pwrStateTime::REF     64220000                       # Time in different power states (Tick)
system.mem_ctrl.dram.rank0.pwrStateTime::SREF            0                       # Time in different power states (Tick)
system.mem_ctrl.dram.rank0.pwrStateTime::PRE_PDN            0                       # Time in different power states (Tick)
system.mem_ctrl.dram.rank0.pwrStateTime::ACT   1596042056                       # Time in different power states (Tick)
system.mem_ctrl.dram.rank0.pwrStateTime::ACT_PDN            0                       # Time in different power states (Tick)
system.mem_ctrl.dram.rank1.actEnergy         15979320                       # Energy for activate commands per rank (pJ) (Joule)
system.mem_ctrl.dram.rank1.preEnergy          8497005                       # Energy for precharge commands per rank (pJ) (Joule)
system.mem_ctrl.dram.rank1.readEnergy       120780240                       # Energy for read commands per rank (pJ) (Joule)
system.mem_ctrl.dram.rank1.writeEnergy        2176740                       # Energy for write commands per rank (pJ) (Joule)
system.mem_ctrl.dram.rank1.refreshEnergy 151816080.000000                       # Energy for refresh commands per rank (pJ) (Joule)
system.mem_ctrl.dram.rank1.actBackEnergy    732486480                       # Energy for active background per rank (pJ) (Joule)
system.mem_ctrl.dram.rank1.preBackEnergy    121669920                       # Energy for precharge background per rank (pJ) (Joule)
system.mem_ctrl.dram.rank1.actPowerDownEnergy            0                       # Energy for active power-down per rank (pJ) (Joule)
system.mem_ctrl.dram.rank1.prePowerDownEnergy            0                       # Energy for precharge power-down per rank (pJ) (Joule)
system.mem_ctrl.dram.rank1.selfRefreshEnergy            0                       # Energy for self refresh per rank (pJ) (Joule)
system.mem_ctrl.dram.rank1.totalEnergy     1153405785                       # Total energy per rank (pJ) (Joule)
system.mem_ctrl.dram.rank1.averagePower    599.739303                       # Core power per rank (mW) (Watt)
system.mem_ctrl.dram.rank1.totalIdleTime            0                       # Total Idle time Per DRAM Rank (Tick)
system.mem_ctrl.dram.rank1.pwrStateTime::IDLE    304769432                       # Time in different power states (Tick)
system.mem_ctrl.dram.rank1.pwrStateTime::REF     64220000                       # Time in different power states (Tick)
system.mem_ctrl.dram.rank1.pwrStateTime::SREF            0                       # Time in different power states (Tick)
system.mem_ctrl.dram.rank1.pwrStateTime::PRE_PDN            0                       # Time in different power states (Tick)
system.mem_ctrl.dram.rank1.pwrStateTime::ACT   1554189154                       # Time in different power states (Tick)
system.mem_ctrl.dram.rank1.pwrStateTime::ACT_PDN            0                       # Time in different power states (Tick)
system.mem_ctrl.power_state.pwrStateResidencyTicks::UNDEFINED   1923178586                       # Cumulative time (in ticks) in various power states (Tick)
system.membus.transDist::ReadReq                33489                       # Transaction distribution (Count)
system.membus.transDist::ReadResp               33489                       # Transaction distribution (Count)
system.membus.transDist::WriteReq                4989                       # Transaction distribution (Count)
system.membus.transDist::WriteResp               4989                       # Transaction distribution (Count)
system.membus.transDist::LockedRMWReadReq          193                       # Transaction distribution (Count)
system.membus.transDist::LockedRMWReadResp          193                       # Transaction distribution (Count)
system.membus.transDist::LockedRMWWriteReq          193                       # Transaction distribution (Count)
system.membus.transDist::LockedRMWWriteResp          193                       # Transaction distribution (Count)
system.membus.pktCount_system.cpu.icache_port::system.mem_ctrl.port        12122                       # Packet count per connected requestor and responder (Count)
system.membus.pktCount_system.cpu.icache_port::total        12122                       # Packet count per connected requestor and responder (Count)
system.membus.pktCount_system.cpu.dcache_port::system.mem_ctrl.port        65606                       # Packet count per connected requestor and responder (Count)
system.membus.pktCount_system.cpu.dcache_port::total        65606                       # Packet count per connected requestor and responder (Count)
system.membus.pktCount::total                   77728                       # Packet count per connected requestor and responder (Count)
system.membus.pktSize_system.cpu.icache_port::system.mem_ctrl.port       387904                       # Cumulative packet size per connected requestor and responder (Byte)
system.membus.pktSize_system.cpu.icache_port::total       387904                       # Cumulative packet size per connected requestor and responder (Byte)
system.membus.pktSize_system.cpu.dcache_port::system.mem_ctrl.port       131093                       # Cumulative packet size per connected requestor and responder (Byte)
system.membus.pktSize_system.cpu.dcache_port::total       131093                       # Cumulative packet size per connected requestor and responder (Byte)
system.membus.pktSize::total                   518997                       # Cumulative packet size per connected requestor and responder (Byte)
system.membus.snoops                                0                       # Total snoops (Count)
system.membus.snoopTraffic                          0                       # Total snoop traffic (Byte)
system.membus.snoopFanout::samples              38864                       # Request fanout histogram (Count)
system.membus.snoopFanout::mean                     0                       # Request fanout histogram (Count)
system.membus.snoopFanout::stdev                    0                       # Request fanout histogram (Count)
system.membus.snoopFanout::underflows               0      0.00%      0.00% # Request fanout histogram (Count)
system.membus.snoopFanout::0                    38864    100.00%    100.00% # Request fanout histogram (Count)
system.membus.snoopFanout::1                        0      0.00%    100.00% # Request fanout histogram (Count)
system.membus.snoopFanout::overflows                0      0.00%    100.00% # Request fanout histogram (Count)
system.membus.snoopFanout::min_value                0                       # Request fanout histogram (Count)
system.membus.snoopFanout::max_value                0                       # Request fanout histogram (Count)
system.membus.snoopFanout::total                38864                       # Request fanout histogram (Count)
system.membus.power_state.pwrStateResidencyTicks::UNDEFINED   1923178586                       # Cumulative time (in ticks) in various power states (Tick)
system.membus.reqLayer2.occupancy           587265318                       # Layer occupancy (ticks) (Tick)
system.membus.reqLayer2.utilization               0.3                       # Layer utilization (Ratio)
system.membus.respLayer1.occupancy          416371606                       # Layer occupancy (ticks) (Tick)
system.membus.respLayer1.utilization              0.2                       # Layer utilization (Ratio)
system.membus.respLayer2.occupancy          830691486                       # Layer occupancy (ticks) (Tick)
system.membus.respLayer2.utilization              0.4                       # Layer utilization (Ratio)
system.membus.snoop_filter.totRequests              0                       # Total number of requests made to the snoop filter. (Count)
system.membus.snoop_filter.hitSingleRequests            0                       # Number of requests hitting in the snoop filter with a single holder of the requested data. (Count)
system.membus.snoop_filter.hitMultiRequests            0                       # Number of requests hitting in the snoop filter with multiple (>1) holders of the requested data. (Count)
system.membus.snoop_filter.totSnoops                0                       # Total number of snoops made to the snoop filter. (Count)
system.membus.snoop_filter.hitSingleSnoops            0                       # Number of snoops hitting in the snoop filter with a single holder of the requested data. (Count)
system.membus.snoop_filter.hitMultiSnoops            0                       # Number of snoops hitting in the snoop filter with multiple (>1) holders of the requested data. (Count)
system.workload.inst.arm                            0                       # number of arm instructions executed (Count)
system.workload.inst.quiesce                        0                       # number of quiesce instructions executed (Count)

---------- End Simulation Statistics   ----------
