
---------- Begin Simulation Statistics ----------
simSeconds                                   1.925376                       # Number of seconds simulated (Second)
simTicks                                 1925375904399                       # Number of ticks simulated (Tick)
finalTick                                1925375904399                       # Number of ticks from beginning of simulation (restored from checkpoints and never reset) (Tick)
simFreq                                  1000000000000                       # The number of ticks per simulated second ((Tick/Second))
hostSeconds                                    366.65                       # Real time elapsed on the host (Second)
hostTickRate                               5251289023                       # The number of ticks simulated per host second (ticks/s) ((Tick/Second))
hostMemory                                    8624396                       # Number of bytes of host memory used (Byte)
simInsts                                     73388313                       # Number of instructions simulated (Count)
simOps                                      124896658                       # Number of ops (including micro ops) simulated (Count)
hostInstRate                                   200160                       # Simulator instruction rate (inst/s) ((Count/Second))
hostOpRate                                     340644                       # Simulator op (including micro ops) rate (op/s) ((Count/Second))
system.clk_domain.clock                         13333                       # Clock period in ticks (Tick)
system.clk_domain.voltage_domain.voltage            1                       # Voltage in Volts (Volt)
system.cpu.numCycles                        144406804                       # Number of cpu cycles simulated (Cycle)
system.cpu.cpi                               1.967708                       # CPI: cycles per instruction (core level) ((Cycle/Count))
system.cpu.ipc                               0.508205                       # IPC: instructions per cycle (core level) ((Count/Cycle))
system.cpu.numWorkItemsStarted                      0                       # Number of work items this cpu started (Count)
system.cpu.numWorkItemsCompleted                    0                       # Number of work items this cpu completed (Count)
system.cpu.instsAdded                       126773296                       # Number of instructions added to the IQ (excludes non-spec) (Count)
system.cpu.nonSpecInstsAdded                     3073                       # Number of non-speculative instructions added to the IQ (Count)
system.cpu.instsIssued                      131862572                       # Number of instructions issued (Count)
system.cpu.squashedInstsIssued                   3159                       # Number of squashed instructions issued (Count)
system.cpu.squashedInstsExamined              1879703                       # Number of squashed instructions iterated over during squash; mainly for profiling (Count)
system.cpu.squashedOperandsExamined           3155118                       # Number of squashed operands that are examined and possibly removed from graph (Count)
system.cpu.squashedNonSpecRemoved                 357                       # Number of squashed non-spec instructions that were removed (Count)
system.cpu.numIssuedDist::samples           143766127                       # Number of insts issued each cycle (Count)
system.cpu.numIssuedDist::mean               0.917202                       # Number of insts issued each cycle (Count)
system.cpu.numIssuedDist::stdev              1.405944                       # Number of insts issued each cycle (Count)
system.cpu.numIssuedDist::underflows                0      0.00%      0.00% # Number of insts issued each cycle (Count)
system.cpu.numIssuedDist::0                  80838877     56.23%     56.23% # Number of insts issued each cycle (Count)
system.cpu.numIssuedDist::1                  32027551     22.28%     78.51% # Number of insts issued each cycle (Count)
system.cpu.numIssuedDist::2                  11512214      8.01%     86.51% # Number of insts issued each cycle (Count)
system.cpu.numIssuedDist::3                   8293089      5.77%     92.28% # Number of insts issued each cycle (Count)
system.cpu.numIssuedDist::4                   5976680      4.16%     96.44% # Number of insts issued each cycle (Count)
system.cpu.numIssuedDist::5                   3468006      2.41%     98.85% # Number of insts issued each cycle (Count)
system.cpu.numIssuedDist::6                   1099031      0.76%     99.62% # Number of insts issued each cycle (Count)
system.cpu.numIssuedDist::7                    315042      0.22%     99.84% # Number of insts issued each cycle (Count)
system.cpu.numIssuedDist::8                    235637      0.16%    100.00% # Number of insts issued each cycle (Count)
system.cpu.numIssuedDist::overflows                 0      0.00%    100.00% # Number of insts issued each cycle (Count)
system.cpu.numIssuedDist::min_value                 0                       # Number of insts issued each cycle (Count)
system.cpu.numIssuedDist::max_value                 8                       # Number of insts issued each cycle (Count)
system.cpu.numIssuedDist::total             143766127                       # Number of insts issued each cycle (Count)
system.cpu.statFuBusy::No_OpClass                   0      0.00%      0.00% # attempts to use FU when none available (Count)
system.cpu.statFuBusy::IntAlu                   14708     13.07%     13.07% # attempts to use FU when none available (Count)
system.cpu.statFuBusy::IntMult                      0      0.00%     13.07% # attempts to use FU when none available (Count)
system.cpu.statFuBusy::IntDiv                       0      0.00%     13.07% # attempts to use FU when none available (Count)
system.cpu.statFuBusy::FloatAdd                     0      0.00%     13.07% # attempts to use FU when none available (Count)
system.cpu.statFuBusy::FloatCmp                     0      0.00%     13.07% # attempts to use FU when none available (Count)
system.cpu.statFuBusy::FloatCvt                     0      0.00%     13.07% # attempts to use FU when none available (Count)
system.cpu.statFuBusy::FloatMult                    0      0.00%     13.07% # attempts to use FU when none available (Count)
system.cpu.statFuBusy::FloatMultAcc                 0      0.00%     13.07% # attempts to use FU when none available (Count)
system.cpu.statFuBusy::FloatDiv                     0      0.00%     13.07% # attempts to use FU when none available (Count)
system.cpu.statFuBusy::FloatMisc                    0      0.00%     13.07% # attempts to use FU when none available (Count)
system.cpu.statFuBusy::FloatSqrt                    0      0.00%     13.07% # attempts to use FU when none available (Count)
system.cpu.statFuBusy::SimdAdd                     32      0.03%     13.10% # attempts to use FU when none available (Count)
system.cpu.statFuBusy::SimdAddAcc                   0      0.00%     13.10% # attempts to use FU when none available (Count)
system.cpu.statFuBusy::SimdAlu                    107      0.10%     13.19% # attempts to use FU when none available (Count)
system.cpu.statFuBusy::SimdCmp                      0      0.00%     13.19% # attempts to use FU when none available (Count)
system.cpu.statFuBusy::SimdCvt                      5      0.00%     13.19% # attempts to use FU when none available (Count)
system.cpu.statFuBusy::SimdMisc                    16      0.01%     13.21% # attempts to use FU when none available (Count)
system.cpu.statFuBusy::SimdMult                     0      0.00%     13.21% # attempts to use FU when none available (Count)
system.cpu.statFuBusy::SimdMultAcc                  0      0.00%     13.21% # attempts to use FU when none available (Count)
system.cpu.statFuBusy::SimdMatMultAcc               0      0.00%     13.21% # attempts to use FU when none available (Count)
system.cpu.statFuBusy::SimdShift                    1      0.00%     13.21% # attempts to use FU when none available (Count)
system.cpu.statFuBusy::SimdShiftAcc                 0      0.00%     13.21% # attempts to use FU when none available (Count)
system.cpu.statFuBusy::SimdDiv                      0      0.00%     13.21% # attempts to use FU when none available (Count)
system.cpu.statFuBusy::SimdSqrt                     0      0.00%     13.21% # attempts to use FU when none available (Count)
system.cpu.statFuBusy::SimdFloatAdd                 0      0.00%     13.21% # attempts to use FU when none available (Count)
system.cpu.statFuBusy::SimdFloatAlu                 0      0.00%     13.21% # attempts to use FU when none available (Count)
system.cpu.statFuBusy::SimdFloatCmp                 0      0.00%     13.21% # attempts to use FU when none available (Count)
system.cpu.statFuBusy::SimdFloatCvt                 0      0.00%     13.21% # attempts to use FU when none available (Count)
system.cpu.statFuBusy::SimdFloatDiv                 0      0.00%     13.21% # attempts to use FU when none available (Count)
system.cpu.statFuBusy::SimdFloatMisc                0      0.00%     13.21% # attempts to use FU when none available (Count)
system.cpu.statFuBusy::SimdFloatMult                0      0.00%     13.21% # attempts to use FU when none available (Count)
system.cpu.statFuBusy::SimdFloatMultAcc             0      0.00%     13.21% # attempts to use FU when none available (Count)
system.cpu.statFuBusy::SimdFloatMatMultAcc            0      0.00%     13.21% # attempts to use FU when none available (Count)
system.cpu.statFuBusy::SimdFloatSqrt                0      0.00%     13.21% # attempts to use FU when none available (Count)
system.cpu.statFuBusy::SimdReduceAdd                0      0.00%     13.21% # attempts to use FU when none available (Count)
system.cpu.statFuBusy::SimdReduceAlu                0      0.00%     13.21% # attempts to use FU when none available (Count)
system.cpu.statFuBusy::SimdReduceCmp                0      0.00%     13.21% # attempts to use FU when none available (Count)
system.cpu.statFuBusy::SimdFloatReduceAdd            0      0.00%     13.21% # attempts to use FU when none available (Count)
system.cpu.statFuBusy::SimdFloatReduceCmp            0      0.00%     13.21% # attempts to use FU when none available (Count)
system.cpu.statFuBusy::SimdAes                      0      0.00%     13.21% # attempts to use FU when none available (Count)
system.cpu.statFuBusy::SimdAesMix                   0      0.00%     13.21% # attempts to use FU when none available (Count)
system.cpu.statFuBusy::SimdSha1Hash                 0      0.00%     13.21% # attempts to use FU when none available (Count)
system.cpu.statFuBusy::SimdSha1Hash2                0      0.00%     13.21% # attempts to use FU when none available (Count)
system.cpu.statFuBusy::SimdSha256Hash               0      0.00%     13.21% # attempts to use FU when none available (Count)
system.cpu.statFuBusy::SimdSha256Hash2              0      0.00%     13.21% # attempts to use FU when none available (Count)
system.cpu.statFuBusy::SimdShaSigma2                0      0.00%     13.21% # attempts to use FU when none available (Count)
system.cpu.statFuBusy::SimdShaSigma3                0      0.00%     13.21% # attempts to use FU when none available (Count)
system.cpu.statFuBusy::SimdPredAlu                  0      0.00%     13.21% # attempts to use FU when none available (Count)
system.cpu.statFuBusy::Matrix                       0      0.00%     13.21% # attempts to use FU when none available (Count)
system.cpu.statFuBusy::MatrixMov                    0      0.00%     13.21% # attempts to use FU when none available (Count)
system.cpu.statFuBusy::MatrixOP                     0      0.00%     13.21% # attempts to use FU when none available (Count)
system.cpu.statFuBusy::MemRead                  82508     73.30%     86.51% # attempts to use FU when none available (Count)
system.cpu.statFuBusy::MemWrite                 11674     10.37%     96.88% # attempts to use FU when none available (Count)
system.cpu.statFuBusy::FloatMemRead              3361      2.99%     99.87% # attempts to use FU when none available (Count)
system.cpu.statFuBusy::FloatMemWrite              149      0.13%    100.00% # attempts to use FU when none available (Count)
system.cpu.statFuBusy::IprAccess                    0      0.00%    100.00% # attempts to use FU when none available (Count)
system.cpu.statFuBusy::InstPrefetch                 0      0.00%    100.00% # attempts to use FU when none available (Count)
system.cpu.statFuBusy::SimdUnitStrideLoad            0      0.00%    100.00% # attempts to use FU when none available (Count)
system.cpu.statFuBusy::SimdUnitStrideStore            0      0.00%    100.00% # attempts to use FU when none available (Count)
system.cpu.statFuBusy::SimdUnitStrideMaskLoad            0      0.00%    100.00% # attempts to use FU when none available (Count)
system.cpu.statFuBusy::SimdUnitStrideMaskStore            0      0.00%    100.00% # attempts to use FU when none available (Count)
system.cpu.statFuBusy::SimdStridedLoad              0      0.00%    100.00% # attempts to use FU when none available (Count)
system.cpu.statFuBusy::SimdStridedStore             0      0.00%    100.00% # attempts to use FU when none available (Count)
system.cpu.statFuBusy::SimdIndexedLoad              0      0.00%    100.00% # attempts to use FU when none available (Count)
system.cpu.statFuBusy::SimdIndexedStore             0      0.00%    100.00% # attempts to use FU when none available (Count)
system.cpu.statFuBusy::SimdWholeRegisterLoad            0      0.00%    100.00% # attempts to use FU when none available (Count)
system.cpu.statFuBusy::SimdWholeRegisterStore            0      0.00%    100.00% # attempts to use FU when none available (Count)
system.cpu.statFuBusy::SimdUnitStrideFaultOnlyFirstLoad            0      0.00%    100.00% # attempts to use FU when none available (Count)
system.cpu.statFuBusy::SimdUnitStrideSegmentedLoad            0      0.00%    100.00% # attempts to use FU when none available (Count)
system.cpu.statFuBusy::SimdUnitStrideSegmentedStore            0      0.00%    100.00% # attempts to use FU when none available (Count)
system.cpu.statFuBusy::SimdExt                      0      0.00%    100.00% # attempts to use FU when none available (Count)
system.cpu.statFuBusy::SimdFloatExt                 0      0.00%    100.00% # attempts to use FU when none available (Count)
system.cpu.statFuBusy::SimdConfig                   0      0.00%    100.00% # attempts to use FU when none available (Count)
system.cpu.statIssuedInstType_0::No_OpClass       219219      0.17%      0.17% # Number of instructions issued per FU type, per thread (Count)
system.cpu.statIssuedInstType_0::IntAlu      98704263     74.85%     75.02% # Number of instructions issued per FU type, per thread (Count)
system.cpu.statIssuedInstType_0::IntMult          195      0.00%     75.02% # Number of instructions issued per FU type, per thread (Count)
system.cpu.statIssuedInstType_0::IntDiv         45815      0.03%     75.06% # Number of instructions issued per FU type, per thread (Count)
system.cpu.statIssuedInstType_0::FloatAdd         9084      0.01%     75.06% # Number of instructions issued per FU type, per thread (Count)
system.cpu.statIssuedInstType_0::FloatCmp            0      0.00%     75.06% # Number of instructions issued per FU type, per thread (Count)
system.cpu.statIssuedInstType_0::FloatCvt         1376      0.00%     75.06% # Number of instructions issued per FU type, per thread (Count)
system.cpu.statIssuedInstType_0::FloatMult            0      0.00%     75.06% # Number of instructions issued per FU type, per thread (Count)
system.cpu.statIssuedInstType_0::FloatMultAcc            0      0.00%     75.06% # Number of instructions issued per FU type, per thread (Count)
system.cpu.statIssuedInstType_0::FloatDiv            0      0.00%     75.06% # Number of instructions issued per FU type, per thread (Count)
system.cpu.statIssuedInstType_0::FloatMisc            0      0.00%     75.06% # Number of instructions issued per FU type, per thread (Count)
system.cpu.statIssuedInstType_0::FloatSqrt            0      0.00%     75.06% # Number of instructions issued per FU type, per thread (Count)
system.cpu.statIssuedInstType_0::SimdAdd         6830      0.01%     75.07% # Number of instructions issued per FU type, per thread (Count)
system.cpu.statIssuedInstType_0::SimdAddAcc            0      0.00%     75.07% # Number of instructions issued per FU type, per thread (Count)
system.cpu.statIssuedInstType_0::SimdAlu       142766      0.11%     75.18% # Number of instructions issued per FU type, per thread (Count)
system.cpu.statIssuedInstType_0::SimdCmp           12      0.00%     75.18% # Number of instructions issued per FU type, per thread (Count)
system.cpu.statIssuedInstType_0::SimdCvt        13807      0.01%     75.19% # Number of instructions issued per FU type, per thread (Count)
system.cpu.statIssuedInstType_0::SimdMisc        14765      0.01%     75.20% # Number of instructions issued per FU type, per thread (Count)
system.cpu.statIssuedInstType_0::SimdMult            0      0.00%     75.20% # Number of instructions issued per FU type, per thread (Count)
system.cpu.statIssuedInstType_0::SimdMultAcc            0      0.00%     75.20% # Number of instructions issued per FU type, per thread (Count)
system.cpu.statIssuedInstType_0::SimdMatMultAcc            0      0.00%     75.20% # Number of instructions issued per FU type, per thread (Count)
system.cpu.statIssuedInstType_0::SimdShift         2701      0.00%     75.20% # Number of instructions issued per FU type, per thread (Count)
system.cpu.statIssuedInstType_0::SimdShiftAcc            0      0.00%     75.20% # Number of instructions issued per FU type, per thread (Count)
system.cpu.statIssuedInstType_0::SimdDiv            0      0.00%     75.20% # Number of instructions issued per FU type, per thread (Count)
system.cpu.statIssuedInstType_0::SimdSqrt            0      0.00%     75.20% # Number of instructions issued per FU type, per thread (Count)
system.cpu.statIssuedInstType_0::SimdFloatAdd           65      0.00%     75.20% # Number of instructions issued per FU type, per thread (Count)
system.cpu.statIssuedInstType_0::SimdFloatAlu            0      0.00%     75.20% # Number of instructions issued per FU type, per thread (Count)
system.cpu.statIssuedInstType_0::SimdFloatCmp            0      0.00%     75.20% # Number of instructions issued per FU type, per thread (Count)
system.cpu.statIssuedInstType_0::SimdFloatCvt          330      0.00%     75.20% # Number of instructions issued per FU type, per thread (Count)
system.cpu.statIssuedInstType_0::SimdFloatDiv           33      0.00%     75.20% # Number of instructions issued per FU type, per thread (Count)
system.cpu.statIssuedInstType_0::SimdFloatMisc            0      0.00%     75.20% # Number of instructions issued per FU type, per thread (Count)
system.cpu.statIssuedInstType_0::SimdFloatMult            0      0.00%     75.20% # Number of instructions issued per FU type, per thread (Count)
system.cpu.statIssuedInstType_0::SimdFloatMultAcc            0      0.00%     75.20% # Number of instructions issued per FU type, per thread (Count)
system.cpu.statIssuedInstType_0::SimdFloatMatMultAcc            0      0.00%     75.20% # Number of instructions issued per FU type, per thread (Count)
system.cpu.statIssuedInstType_0::SimdFloatSqrt           32      0.00%     75.20% # Number of instructions issued per FU type, per thread (Count)
system.cpu.statIssuedInstType_0::SimdReduceAdd            0      0.00%     75.20% # Number of instructions issued per FU type, per thread (Count)
system.cpu.statIssuedInstType_0::SimdReduceAlu            0      0.00%     75.20% # Number of instructions issued per FU type, per thread (Count)
system.cpu.statIssuedInstType_0::SimdReduceCmp            0      0.00%     75.20% # Number of instructions issued per FU type, per thread (Count)
system.cpu.statIssuedInstType_0::SimdFloatReduceAdd            0      0.00%     75.20% # Number of instructions issued per FU type, per thread (Count)
system.cpu.statIssuedInstType_0::SimdFloatReduceCmp            0      0.00%     75.20% # Number of instructions issued per FU type, per thread (Count)
system.cpu.statIssuedInstType_0::SimdAes            0      0.00%     75.20% # Number of instructions issued per FU type, per thread (Count)
system.cpu.statIssuedInstType_0::SimdAesMix            0      0.00%     75.20% # Number of instructions issued per FU type, per thread (Count)
system.cpu.statIssuedInstType_0::SimdSha1Hash            0      0.00%     75.20% # Number of instructions issued per FU type, per thread (Count)
system.cpu.statIssuedInstType_0::SimdSha1Hash2            0      0.00%     75.20% # Number of instructions issued per FU type, per thread (Count)
system.cpu.statIssuedInstType_0::SimdSha256Hash            0      0.00%     75.20% # Number of instructions issued per FU type, per thread (Count)
system.cpu.statIssuedInstType_0::SimdSha256Hash2            0      0.00%     75.20% # Number of instructions issued per FU type, per thread (Count)
system.cpu.statIssuedInstType_0::SimdShaSigma2            0      0.00%     75.20% # Number of instructions issued per FU type, per thread (Count)
system.cpu.statIssuedInstType_0::SimdShaSigma3            0      0.00%     75.20% # Number of instructions issued per FU type, per thread (Count)
system.cpu.statIssuedInstType_0::SimdPredAlu            0      0.00%     75.20% # Number of instructions issued per FU type, per thread (Count)
system.cpu.statIssuedInstType_0::Matrix             0      0.00%     75.20% # Number of instructions issued per FU type, per thread (Count)
system.cpu.statIssuedInstType_0::MatrixMov            0      0.00%     75.20% # Number of instructions issued per FU type, per thread (Count)
system.cpu.statIssuedInstType_0::MatrixOP            0      0.00%     75.20% # Number of instructions issued per FU type, per thread (Count)
system.cpu.statIssuedInstType_0::MemRead     23728166     17.99%     93.20% # Number of instructions issued per FU type, per thread (Count)
system.cpu.statIssuedInstType_0::MemWrite      7943551      6.02%     99.22% # Number of instructions issued per FU type, per thread (Count)
system.cpu.statIssuedInstType_0::FloatMemRead       625122      0.47%     99.69% # Number of instructions issued per FU type, per thread (Count)
system.cpu.statIssuedInstType_0::FloatMemWrite       404440      0.31%    100.00% # Number of instructions issued per FU type, per thread (Count)
system.cpu.statIssuedInstType_0::IprAccess            0      0.00%    100.00% # Number of instructions issued per FU type, per thread (Count)
system.cpu.statIssuedInstType_0::InstPrefetch            0      0.00%    100.00% # Number of instructions issued per FU type, per thread (Count)
system.cpu.statIssuedInstType_0::SimdUnitStrideLoad            0      0.00%    100.00% # Number of instructions issued per FU type, per thread (Count)
system.cpu.statIssuedInstType_0::SimdUnitStrideStore            0      0.00%    100.00% # Number of instructions issued per FU type, per thread (Count)
system.cpu.statIssuedInstType_0::SimdUnitStrideMaskLoad            0      0.00%    100.00% # Number of instructions issued per FU type, per thread (Count)
system.cpu.statIssuedInstType_0::SimdUnitStrideMaskStore            0      0.00%    100.00% # Number of instructions issued per FU type, per thread (Count)
system.cpu.statIssuedInstType_0::SimdStridedLoad            0      0.00%    100.00% # Number of instructions issued per FU type, per thread (Count)
system.cpu.statIssuedInstType_0::SimdStridedStore            0      0.00%    100.00% # Number of instructions issued per FU type, per thread (Count)
system.cpu.statIssuedInstType_0::SimdIndexedLoad            0      0.00%    100.00% # Number of instructions issued per FU type, per thread (Count)
system.cpu.statIssuedInstType_0::SimdIndexedStore            0      0.00%    100.00% # Number of instructions issued per FU type, per thread (Count)
system.cpu.statIssuedInstType_0::SimdWholeRegisterLoad            0      0.00%    100.00% # Number of instructions issued per FU type, per thread (Count)
system.cpu.statIssuedInstType_0::SimdWholeRegisterStore            0      0.00%    100.00% # Number of instructions issued per FU type, per thread (Count)
system.cpu.statIssuedInstType_0::SimdUnitStrideFaultOnlyFirstLoad            0      0.00%    100.00% # Number of instructions issued per FU type, per thread (Count)
system.cpu.statIssuedInstType_0::SimdUnitStrideSegmentedLoad            0      0.00%    100.00% # Number of instructions issued per FU type, per thread (Count)
system.cpu.statIssuedInstType_0::SimdUnitStrideSegmentedStore            0      0.00%    100.00% # Number of instructions issued per FU type, per thread (Count)
system.cpu.statIssuedInstType_0::SimdExt            0      0.00%    100.00% # Number of instructions issued per FU type, per thread (Count)
system.cpu.statIssuedInstType_0::SimdFloatExt            0      0.00%    100.00% # Number of instructions issued per FU type, per thread (Count)
system.cpu.statIssuedInstType_0::SimdConfig            0      0.00%    100.00% # Number of instructions issued per FU type, per thread (Count)
system.cpu.statIssuedInstType_0::total      131862572                       # Number of instructions issued per FU type, per thread (Count)
system.cpu.issueRate                         0.913133                       # Inst issue rate ((Count/Cycle))
system.cpu.fuBusy                              112561                       # FU busy when requested (Count)
system.cpu.fuBusyRate                        0.000854                       # FU busy rate (busy events/executed inst) ((Count/Count))
system.cpu.intInstQueueReads                405150419                       # Number of integer instruction queue reads (Count)
system.cpu.intInstQueueWrites               127744606                       # Number of integer instruction queue writes (Count)
system.cpu.intInstQueueWakeupAccesses       125192420                       # Number of integer instruction queue wakeup accesses (Count)
system.cpu.fpInstQueueReads                   2456572                       # Number of floating instruction queue reads (Count)
system.cpu.fpInstQueueWrites                   912402                       # Number of floating instruction queue writes (Count)
system.cpu.fpInstQueueWakeupAccesses           873993                       # Number of floating instruction queue wakeup accesses (Count)
system.cpu.vecInstQueueReads                        0                       # Number of vector instruction queue reads (Count)
system.cpu.vecInstQueueWrites                       0                       # Number of vector instruction queue writes (Count)
system.cpu.vecInstQueueWakeupAccesses               0                       # Number of vector instruction queue wakeup accesses (Count)
system.cpu.intAluAccesses                   130525977                       # Number of integer alu accesses (Count)
system.cpu.fpAluAccesses                      1229937                       # Number of floating point alu accesses (Count)
system.cpu.vecAluAccesses                           0                       # Number of vector alu accesses (Count)
system.cpu.numSquashedInsts                     52880                       # Number of squashed instructions skipped in execute (Count)
system.cpu.numSwp                                   0                       # Number of swp insts executed (Count)
system.cpu.timesIdled                           92627                       # Number of times that the entire CPU went into an idle state and unscheduled itself (Count)
system.cpu.idleCycles                          640677                       # Total number of cycles that the CPU has spent unscheduled due to idling (Cycle)
system.cpu.MemDepUnit__0.insertedLoads       18787217                       # Number of loads inserted to the mem dependence unit. (Count)
system.cpu.MemDepUnit__0.insertedStores       8369732                       # Number of stores inserted to the mem dependence unit. (Count)
system.cpu.MemDepUnit__0.conflictingLoads      3776876                       # Number of conflicting loads. (Count)
system.cpu.MemDepUnit__0.conflictingStores      2910019                       # Number of conflicting stores. (Count)
system.cpu.MemDepUnit__1.insertedLoads              0                       # Number of loads inserted to the mem dependence unit. (Count)
system.cpu.MemDepUnit__1.insertedStores             0                       # Number of stores inserted to the mem dependence unit. (Count)
system.cpu.MemDepUnit__1.conflictingLoads            0                       # Number of conflicting loads. (Count)
system.cpu.MemDepUnit__1.conflictingStores            0                       # Number of conflicting stores. (Count)
system.cpu.MemDepUnit__2.insertedLoads              0                       # Number of loads inserted to the mem dependence unit. (Count)
system.cpu.MemDepUnit__2.insertedStores             0                       # Number of stores inserted to the mem dependence unit. (Count)
system.cpu.MemDepUnit__2.conflictingLoads            0                       # Number of conflicting loads. (Count)
system.cpu.MemDepUnit__2.conflictingStores            0                       # Number of conflicting stores. (Count)
system.cpu.MemDepUnit__3.insertedLoads              0                       # Number of loads inserted to the mem dependence unit. (Count)
system.cpu.MemDepUnit__3.insertedStores             0                       # Number of stores inserted to the mem dependence unit. (Count)
system.cpu.MemDepUnit__3.conflictingLoads            0                       # Number of conflicting loads. (Count)
system.cpu.MemDepUnit__3.conflictingStores            0                       # Number of conflicting stores. (Count)
system.cpu.branchPred.lookups_0::NoBranch         1614      0.01%      0.01% # Number of BP lookups (Count)
system.cpu.branchPred.lookups_0::Return        142648      1.20%      1.22% # Number of BP lookups (Count)
system.cpu.branchPred.lookups_0::CallDirect       159568      1.35%      2.57% # Number of BP lookups (Count)
system.cpu.branchPred.lookups_0::CallIndirect         1165      0.01%      2.58% # Number of BP lookups (Count)
system.cpu.branchPred.lookups_0::DirectCond     11178102     94.39%     96.96% # Number of BP lookups (Count)
system.cpu.branchPred.lookups_0::DirectUncond       350283      2.96%     99.92% # Number of BP lookups (Count)
system.cpu.branchPred.lookups_0::IndirectCond            0      0.00%     99.92% # Number of BP lookups (Count)
system.cpu.branchPred.lookups_0::IndirectUncond         9365      0.08%    100.00% # Number of BP lookups (Count)
system.cpu.branchPred.lookups_0::total       11842745                       # Number of BP lookups (Count)
system.cpu.branchPred.squashes_0::NoBranch         1367      0.46%      0.46% # Number of branches that got squashed (completely removed) as an earlier branch was mispredicted. (Count)
system.cpu.branchPred.squashes_0::Return         1092      0.37%      0.83% # Number of branches that got squashed (completely removed) as an earlier branch was mispredicted. (Count)
system.cpu.branchPred.squashes_0::CallDirect        18625      6.30%      7.13% # Number of branches that got squashed (completely removed) as an earlier branch was mispredicted. (Count)
system.cpu.branchPred.squashes_0::CallIndirect          548      0.19%      7.31% # Number of branches that got squashed (completely removed) as an earlier branch was mispredicted. (Count)
system.cpu.branchPred.squashes_0::DirectCond       254973     86.22%     93.53% # Number of branches that got squashed (completely removed) as an earlier branch was mispredicted. (Count)
system.cpu.branchPred.squashes_0::DirectUncond        15039      5.09%     98.62% # Number of branches that got squashed (completely removed) as an earlier branch was mispredicted. (Count)
system.cpu.branchPred.squashes_0::IndirectCond            0      0.00%     98.62% # Number of branches that got squashed (completely removed) as an earlier branch was mispredicted. (Count)
system.cpu.branchPred.squashes_0::IndirectUncond         4090      1.38%    100.00% # Number of branches that got squashed (completely removed) as an earlier branch was mispredicted. (Count)
system.cpu.branchPred.squashes_0::total        295734                       # Number of branches that got squashed (completely removed) as an earlier branch was mispredicted. (Count)
system.cpu.branchPred.corrected_0::NoBranch          396      0.53%      0.53% # Number of branches that got corrected but not yet commited. Branches get corrected by decode or after execute. Also a branch misprediction can be detected out-of-order. Therefore, a corrected branch might not end up beeing committed in case an even earlier branch was mispredicted (Count)
system.cpu.branchPred.corrected_0::Return            2      0.00%      0.53% # Number of branches that got corrected but not yet commited. Branches get corrected by decode or after execute. Also a branch misprediction can be detected out-of-order. Therefore, a corrected branch might not end up beeing committed in case an even earlier branch was mispredicted (Count)
system.cpu.branchPred.corrected_0::CallDirect          795      1.06%      1.59% # Number of branches that got corrected but not yet commited. Branches get corrected by decode or after execute. Also a branch misprediction can be detected out-of-order. Therefore, a corrected branch might not end up beeing committed in case an even earlier branch was mispredicted (Count)
system.cpu.branchPred.corrected_0::CallIndirect          243      0.32%      1.91% # Number of branches that got corrected but not yet commited. Branches get corrected by decode or after execute. Also a branch misprediction can be detected out-of-order. Therefore, a corrected branch might not end up beeing committed in case an even earlier branch was mispredicted (Count)
system.cpu.branchPred.corrected_0::DirectCond        71784     95.69%     97.61% # Number of branches that got corrected but not yet commited. Branches get corrected by decode or after execute. Also a branch misprediction can be detected out-of-order. Therefore, a corrected branch might not end up beeing committed in case an even earlier branch was mispredicted (Count)
system.cpu.branchPred.corrected_0::DirectUncond          673      0.90%     98.50% # Number of branches that got corrected but not yet commited. Branches get corrected by decode or after execute. Also a branch misprediction can be detected out-of-order. Therefore, a corrected branch might not end up beeing committed in case an even earlier branch was mispredicted (Count)
system.cpu.branchPred.corrected_0::IndirectCond            0      0.00%     98.50% # Number of branches that got corrected but not yet commited. Branches get corrected by decode or after execute. Also a branch misprediction can be detected out-of-order. Therefore, a corrected branch might not end up beeing committed in case an even earlier branch was mispredicted (Count)
system.cpu.branchPred.corrected_0::IndirectUncond         1123      1.50%    100.00% # Number of branches that got corrected but not yet commited. Branches get corrected by decode or after execute. Also a branch misprediction can be detected out-of-order. Therefore, a corrected branch might not end up beeing committed in case an even earlier branch was mispredicted (Count)
system.cpu.branchPred.corrected_0::total        75016                       # Number of branches that got corrected but not yet commited. Branches get corrected by decode or after execute. Also a branch misprediction can be detected out-of-order. Therefore, a corrected branch might not end up beeing committed in case an even earlier branch was mispredicted (Count)
system.cpu.branchPred.earlyResteers_0::NoBranch            0                       # Number of branches that got redirected after decode. (Count)
system.cpu.branchPred.earlyResteers_0::Return            0                       # Number of branches that got redirected after decode. (Count)
system.cpu.branchPred.earlyResteers_0::CallDirect            0                       # Number of branches that got redirected after decode. (Count)
system.cpu.branchPred.earlyResteers_0::CallIndirect            0                       # Number of branches that got redirected after decode. (Count)
system.cpu.branchPred.earlyResteers_0::DirectCond            0                       # Number of branches that got redirected after decode. (Count)
system.cpu.branchPred.earlyResteers_0::DirectUncond            0                       # Number of branches that got redirected after decode. (Count)
system.cpu.branchPred.earlyResteers_0::IndirectCond            0                       # Number of branches that got redirected after decode. (Count)
system.cpu.branchPred.earlyResteers_0::IndirectUncond            0                       # Number of branches that got redirected after decode. (Count)
system.cpu.branchPred.earlyResteers_0::total            0                       # Number of branches that got redirected after decode. (Count)
system.cpu.branchPred.committed_0::NoBranch          247      0.00%      0.00% # Number of branches finally committed  (Count)
system.cpu.branchPred.committed_0::Return       141555      1.23%      1.23% # Number of branches finally committed  (Count)
system.cpu.branchPred.committed_0::CallDirect       140943      1.22%      2.45% # Number of branches finally committed  (Count)
system.cpu.branchPred.committed_0::CallIndirect          617      0.01%      2.45% # Number of branches finally committed  (Count)
system.cpu.branchPred.committed_0::DirectCond     10923129     94.60%     97.05% # Number of branches finally committed  (Count)
system.cpu.branchPred.committed_0::DirectUncond       335244      2.90%     99.95% # Number of branches finally committed  (Count)
system.cpu.branchPred.committed_0::IndirectCond            0      0.00%     99.95% # Number of branches finally committed  (Count)
system.cpu.branchPred.committed_0::IndirectUncond         5275      0.05%    100.00% # Number of branches finally committed  (Count)
system.cpu.branchPred.committed_0::total     11547010                       # Number of branches finally committed  (Count)
system.cpu.branchPred.mispredicted_0::NoBranch          247      0.34%      0.34% # Number of committed branches that were mispredicted. (Count)
system.cpu.branchPred.mispredicted_0::Return            0      0.00%      0.34% # Number of committed branches that were mispredicted. (Count)
system.cpu.branchPred.mispredicted_0::CallDirect          547      0.74%      1.08% # Number of committed branches that were mispredicted. (Count)
system.cpu.branchPred.mispredicted_0::CallIndirect          227      0.31%      1.39% # Number of committed branches that were mispredicted. (Count)
system.cpu.branchPred.mispredicted_0::DirectCond        71053     96.54%     97.93% # Number of committed branches that were mispredicted. (Count)
system.cpu.branchPred.mispredicted_0::DirectUncond          420      0.57%     98.50% # Number of committed branches that were mispredicted. (Count)
system.cpu.branchPred.mispredicted_0::IndirectCond            0      0.00%     98.50% # Number of committed branches that were mispredicted. (Count)
system.cpu.branchPred.mispredicted_0::IndirectUncond         1106      1.50%    100.00% # Number of committed branches that were mispredicted. (Count)
system.cpu.branchPred.mispredicted_0::total        73600                       # Number of committed branches that were mispredicted. (Count)
system.cpu.branchPred.targetProvider_0::NoTarget      2768495     23.38%     23.38% # The component providing the target for taken branches (Count)
system.cpu.branchPred.targetProvider_0::BTB      8926739     75.38%     98.75% # The component providing the target for taken branches (Count)
system.cpu.branchPred.targetProvider_0::RAS       142648      1.20%     99.96% # The component providing the target for taken branches (Count)
system.cpu.branchPred.targetProvider_0::Indirect         4863      0.04%    100.00% # The component providing the target for taken branches (Count)
system.cpu.branchPred.targetProvider_0::total     11842745                       # The component providing the target for taken branches (Count)
system.cpu.branchPred.targetWrong_0::NoBranch        36467     50.26%     50.26% # Number of branches where the target was incorrect or not available at prediction time. (Count)
system.cpu.branchPred.targetWrong_0::Return        35954     49.55%     99.80% # Number of branches where the target was incorrect or not available at prediction time. (Count)
system.cpu.branchPred.targetWrong_0::CallDirect            2      0.00%     99.81% # Number of branches where the target was incorrect or not available at prediction time. (Count)
system.cpu.branchPred.targetWrong_0::CallIndirect          140      0.19%    100.00% # Number of branches where the target was incorrect or not available at prediction time. (Count)
system.cpu.branchPred.targetWrong_0::DirectCond            0      0.00%    100.00% # Number of branches where the target was incorrect or not available at prediction time. (Count)
system.cpu.branchPred.targetWrong_0::DirectUncond            0      0.00%    100.00% # Number of branches where the target was incorrect or not available at prediction time. (Count)
system.cpu.branchPred.targetWrong_0::IndirectCond            0      0.00%    100.00% # Number of branches where the target was incorrect or not available at prediction time. (Count)
system.cpu.branchPred.targetWrong_0::IndirectUncond            0      0.00%    100.00% # Number of branches where the target was incorrect or not available at prediction time. (Count)
system.cpu.branchPred.targetWrong_0::total        72563                       # Number of branches where the target was incorrect or not available at prediction time. (Count)
system.cpu.branchPred.condPredicted          11179716                       # Number of conditional branches predicted (Count)
system.cpu.branchPred.condPredictedTaken      8420865                       # Number of conditional branches predicted as taken (Count)
system.cpu.branchPred.condIncorrect             75016                       # Number of conditional branches incorrect (Count)
system.cpu.branchPred.predTakenBTBMiss           1798                       # Number of branches predicted taken but missed in BTB (Count)
system.cpu.branchPred.NotTakenMispredicted        38291                       # Number branches predicted 'not taken' but turned out to be taken (Count)
system.cpu.branchPred.TakenMispredicted         36725                       # Number branches predicted taken but are actually not taken (Count)
system.cpu.branchPred.BTBLookups             11842745                       # Number of BTB lookups (Count)
system.cpu.branchPred.BTBUpdates                36527                       # Number of BTB updates (Count)
system.cpu.branchPred.BTBHits                10336455                       # Number of BTB hits (Count)
system.cpu.branchPred.BTBHitRatio            0.872809                       # BTB Hit Ratio (Ratio)
system.cpu.branchPred.BTBMispredicted            2698                       # Number BTB mispredictions. No target found or target wrong (Count)
system.cpu.branchPred.indirectLookups           10530                       # Number of indirect predictor lookups. (Count)
system.cpu.branchPred.indirectHits               4863                       # Number of indirect target hits. (Count)
system.cpu.branchPred.indirectMisses             5667                       # Number of indirect misses. (Count)
system.cpu.branchPred.indirectMispredicted            0                       # Number of mispredicted indirect branches. (Count)
system.cpu.branchPred.btb.lookups::NoBranch         1614      0.01%      0.01% # Number of BTB lookups (Count)
system.cpu.branchPred.btb.lookups::Return       142648      1.20%      1.22% # Number of BTB lookups (Count)
system.cpu.branchPred.btb.lookups::CallDirect       159568      1.35%      2.57% # Number of BTB lookups (Count)
system.cpu.branchPred.btb.lookups::CallIndirect         1165      0.01%      2.58% # Number of BTB lookups (Count)
system.cpu.branchPred.btb.lookups::DirectCond     11178102     94.39%     96.96% # Number of BTB lookups (Count)
system.cpu.branchPred.btb.lookups::DirectUncond       350283      2.96%     99.92% # Number of BTB lookups (Count)
system.cpu.branchPred.btb.lookups::IndirectCond            0      0.00%     99.92% # Number of BTB lookups (Count)
system.cpu.branchPred.btb.lookups::IndirectUncond         9365      0.08%    100.00% # Number of BTB lookups (Count)
system.cpu.branchPred.btb.lookups::total     11842745                       # Number of BTB lookups (Count)
system.cpu.branchPred.btb.misses::NoBranch          296      0.02%      0.02% # Number of BTB misses (Count)
system.cpu.branchPred.btb.misses::Return       142648      9.47%      9.49% # Number of BTB misses (Count)
system.cpu.branchPred.btb.misses::CallDirect         1154      0.08%      9.57% # Number of BTB misses (Count)
system.cpu.branchPred.btb.misses::CallIndirect         1164      0.08%      9.64% # Number of BTB misses (Count)
system.cpu.branchPred.btb.misses::DirectCond      1350800     89.68%     99.32% # Number of BTB misses (Count)
system.cpu.branchPred.btb.misses::DirectUncond          863      0.06%     99.38% # Number of BTB misses (Count)
system.cpu.branchPred.btb.misses::IndirectCond            0      0.00%     99.38% # Number of BTB misses (Count)
system.cpu.branchPred.btb.misses::IndirectUncond         9365      0.62%    100.00% # Number of BTB misses (Count)
system.cpu.branchPred.btb.misses::total       1506290                       # Number of BTB misses (Count)
system.cpu.branchPred.btb.updates::NoBranch            0      0.00%      0.00% # Number of BTB updates (Count)
system.cpu.branchPred.btb.updates::Return            0      0.00%      0.00% # Number of BTB updates (Count)
system.cpu.branchPred.btb.updates::CallDirect          795      2.18%      2.18% # Number of BTB updates (Count)
system.cpu.branchPred.btb.updates::CallIndirect            0      0.00%      2.18% # Number of BTB updates (Count)
system.cpu.branchPred.btb.updates::DirectCond        35059     95.98%     98.16% # Number of BTB updates (Count)
system.cpu.branchPred.btb.updates::DirectUncond          673      1.84%    100.00% # Number of BTB updates (Count)
system.cpu.branchPred.btb.updates::IndirectCond            0      0.00%    100.00% # Number of BTB updates (Count)
system.cpu.branchPred.btb.updates::IndirectUncond            0      0.00%    100.00% # Number of BTB updates (Count)
system.cpu.branchPred.btb.updates::total        36527                       # Number of BTB updates (Count)
system.cpu.branchPred.btb.mispredict::NoBranch            0      0.00%      0.00% # Number of BTB mispredictions. No target found or target wrong. (Count)
system.cpu.branchPred.btb.mispredict::Return            0      0.00%      0.00% # Number of BTB mispredictions. No target found or target wrong. (Count)
system.cpu.branchPred.btb.mispredict::CallDirect          795      2.18%      2.18% # Number of BTB mispredictions. No target found or target wrong. (Count)
system.cpu.branchPred.btb.mispredict::CallIndirect            0      0.00%      2.18% # Number of BTB mispredictions. No target found or target wrong. (Count)
system.cpu.branchPred.btb.mispredict::DirectCond        35059     95.98%     98.16% # Number of BTB mispredictions. No target found or target wrong. (Count)
system.cpu.branchPred.btb.mispredict::DirectUncond          673      1.84%    100.00% # Number of BTB mispredictions. No target found or target wrong. (Count)
system.cpu.branchPred.btb.mispredict::IndirectCond            0      0.00%    100.00% # Number of BTB mispredictions. No target found or target wrong. (Count)
system.cpu.branchPred.btb.mispredict::IndirectUncond            0      0.00%    100.00% # Number of BTB mispredictions. No target found or target wrong. (Count)
system.cpu.branchPred.btb.mispredict::total        36527                       # Number of BTB mispredictions. No target found or target wrong. (Count)
system.cpu.branchPred.btb.power_state.pwrStateResidencyTicks::UNDEFINED 1925375904399                       # Cumulative time (in ticks) in various power states (Tick)
system.cpu.branchPred.indirectBranchPred.lookups        10530                       # Number of lookups (Count)
system.cpu.branchPred.indirectBranchPred.hits         4863                       # Number of hits of a tag (Count)
system.cpu.branchPred.indirectBranchPred.misses         5667                       # Number of misses (Count)
system.cpu.branchPred.indirectBranchPred.targetRecords         1366                       # Number of targets that where recorded/installed in the cache (Count)
system.cpu.branchPred.indirectBranchPred.indirectRecords        11896                       # Number of indirect branches/calls recorded in the indirect hist (Count)
system.cpu.branchPred.indirectBranchPred.speculativeOverflows            0                       # Number of times more than the allowed capacity for speculative branches/calls where in flight and destroy the path history (Count)
system.cpu.branchPred.ras.pushes               161825                       # Number of times a PC was pushed onto the RAS (Count)
system.cpu.branchPred.ras.pops                 161821                       # Number of times a PC was poped from the RAS (Count)
system.cpu.branchPred.ras.squashes              20265                       # Number of times the stack operation was squashed due to wrong speculation. (Count)
system.cpu.branchPred.ras.used                 141555                       # Number of times the RAS is the provider (Count)
system.cpu.branchPred.ras.correct              141555                       # Number of times the RAS is the provider and the prediction is correct (Count)
system.cpu.branchPred.ras.incorrect                 0                       # Number of times the RAS is the provider and the prediction is wrong (Count)
system.cpu.commit.commitSquashedInsts         1868528                       # The number of squashed insts skipped by commit (Count)
system.cpu.commit.commitNonSpecStalls            2716                       # The number of times commit has been forced to stall to communicate backwards (Count)
system.cpu.commit.branchMispredicts             73808                       # The number of times a branch was mispredicted (Count)
system.cpu.commit.numCommittedDist::samples    143493819                       # Number of insts commited each cycle (Count)
system.cpu.commit.numCommittedDist::mean     0.870397                       # Number of insts commited each cycle (Count)
system.cpu.commit.numCommittedDist::stdev     1.898172                       # Number of insts commited each cycle (Count)
system.cpu.commit.numCommittedDist::underflows            0      0.00%      0.00% # Number of insts commited each cycle (Count)
system.cpu.commit.numCommittedDist::0        97258248     67.78%     67.78% # Number of insts commited each cycle (Count)
system.cpu.commit.numCommittedDist::1        25283159     17.62%     85.40% # Number of insts commited each cycle (Count)
system.cpu.commit.numCommittedDist::2         4940665      3.44%     88.84% # Number of insts commited each cycle (Count)
system.cpu.commit.numCommittedDist::3         5342799      3.72%     92.56% # Number of insts commited each cycle (Count)
system.cpu.commit.numCommittedDist::4         1565591      1.09%     93.66% # Number of insts commited each cycle (Count)
system.cpu.commit.numCommittedDist::5          698113      0.49%     94.14% # Number of insts commited each cycle (Count)
system.cpu.commit.numCommittedDist::6          762057      0.53%     94.67% # Number of insts commited each cycle (Count)
system.cpu.commit.numCommittedDist::7         1766995      1.23%     95.90% # Number of insts commited each cycle (Count)
system.cpu.commit.numCommittedDist::8         5876192      4.10%    100.00% # Number of insts commited each cycle (Count)
system.cpu.commit.numCommittedDist::overflows            0      0.00%    100.00% # Number of insts commited each cycle (Count)
system.cpu.commit.numCommittedDist::min_value            0                       # Number of insts commited each cycle (Count)
system.cpu.commit.numCommittedDist::max_value            8                       # Number of insts commited each cycle (Count)
system.cpu.commit.numCommittedDist::total    143493819                       # Number of insts commited each cycle (Count)
system.cpu.commit.amos                              0                       # Number of atomic instructions committed (Count)
system.cpu.commit.membars                        1268                       # Number of memory barriers committed (Count)
system.cpu.commit.functionCalls                141560                       # Number of function calls committed. (Count)
system.cpu.commit.committedInstType_0::No_OpClass       210243      0.17%      0.17% # Class of committed instruction (Count)
system.cpu.commit.committedInstType_0::IntAlu     97623308     78.16%     78.33% # Class of committed instruction (Count)
system.cpu.commit.committedInstType_0::IntMult          133      0.00%     78.33% # Class of committed instruction (Count)
system.cpu.commit.committedInstType_0::IntDiv        41555      0.03%     78.36% # Class of committed instruction (Count)
system.cpu.commit.committedInstType_0::FloatAdd         7767      0.01%     78.37% # Class of committed instruction (Count)
system.cpu.commit.committedInstType_0::FloatCmp            0      0.00%     78.37% # Class of committed instruction (Count)
system.cpu.commit.committedInstType_0::FloatCvt         1376      0.00%     78.37% # Class of committed instruction (Count)
system.cpu.commit.committedInstType_0::FloatMult            0      0.00%     78.37% # Class of committed instruction (Count)
system.cpu.commit.committedInstType_0::FloatMultAcc            0      0.00%     78.37% # Class of committed instruction (Count)
system.cpu.commit.committedInstType_0::FloatDiv            0      0.00%     78.37% # Class of committed instruction (Count)
system.cpu.commit.committedInstType_0::FloatMisc            0      0.00%     78.37% # Class of committed instruction (Count)
system.cpu.commit.committedInstType_0::FloatSqrt            0      0.00%     78.37% # Class of committed instruction (Count)
system.cpu.commit.committedInstType_0::SimdAdd         6794      0.01%     78.38% # Class of committed instruction (Count)
system.cpu.commit.committedInstType_0::SimdAddAcc            0      0.00%     78.38% # Class of committed instruction (Count)
system.cpu.commit.committedInstType_0::SimdAlu       141584      0.11%     78.49% # Class of committed instruction (Count)
system.cpu.commit.committedInstType_0::SimdCmp           12      0.00%     78.49% # Class of committed instruction (Count)
system.cpu.commit.committedInstType_0::SimdCvt        13570      0.01%     78.50% # Class of committed instruction (Count)
system.cpu.commit.committedInstType_0::SimdMisc        14547      0.01%     78.51% # Class of committed instruction (Count)
system.cpu.commit.committedInstType_0::SimdMult            0      0.00%     78.51% # Class of committed instruction (Count)
system.cpu.commit.committedInstType_0::SimdMultAcc            0      0.00%     78.51% # Class of committed instruction (Count)
system.cpu.commit.committedInstType_0::SimdMatMultAcc            0      0.00%     78.51% # Class of committed instruction (Count)
system.cpu.commit.committedInstType_0::SimdShift         1717      0.00%     78.51% # Class of committed instruction (Count)
system.cpu.commit.committedInstType_0::SimdShiftAcc            0      0.00%     78.51% # Class of committed instruction (Count)
system.cpu.commit.committedInstType_0::SimdDiv            0      0.00%     78.51% # Class of committed instruction (Count)
system.cpu.commit.committedInstType_0::SimdSqrt            0      0.00%     78.51% # Class of committed instruction (Count)
system.cpu.commit.committedInstType_0::SimdFloatAdd           49      0.00%     78.52% # Class of committed instruction (Count)
system.cpu.commit.committedInstType_0::SimdFloatAlu            0      0.00%     78.52% # Class of committed instruction (Count)
system.cpu.commit.committedInstType_0::SimdFloatCmp            0      0.00%     78.52% # Class of committed instruction (Count)
system.cpu.commit.committedInstType_0::SimdFloatCvt          290      0.00%     78.52% # Class of committed instruction (Count)
system.cpu.commit.committedInstType_0::SimdFloatDiv           17      0.00%     78.52% # Class of committed instruction (Count)
system.cpu.commit.committedInstType_0::SimdFloatMisc            0      0.00%     78.52% # Class of committed instruction (Count)
system.cpu.commit.committedInstType_0::SimdFloatMult            0      0.00%     78.52% # Class of committed instruction (Count)
system.cpu.commit.committedInstType_0::SimdFloatMultAcc            0      0.00%     78.52% # Class of committed instruction (Count)
system.cpu.commit.committedInstType_0::SimdFloatMatMultAcc            0      0.00%     78.52% # Class of committed instruction (Count)
system.cpu.commit.committedInstType_0::SimdFloatSqrt           32      0.00%     78.52% # Class of committed instruction (Count)
system.cpu.commit.committedInstType_0::SimdReduceAdd            0      0.00%     78.52% # Class of committed instruction (Count)
system.cpu.commit.committedInstType_0::SimdReduceAlu            0      0.00%     78.52% # Class of committed instruction (Count)
system.cpu.commit.committedInstType_0::SimdReduceCmp            0      0.00%     78.52% # Class of committed instruction (Count)
system.cpu.commit.committedInstType_0::SimdFloatReduceAdd            0      0.00%     78.52% # Class of committed instruction (Count)
system.cpu.commit.committedInstType_0::SimdFloatReduceCmp            0      0.00%     78.52% # Class of committed instruction (Count)
system.cpu.commit.committedInstType_0::SimdAes            0      0.00%     78.52% # Class of committed instruction (Count)
system.cpu.commit.committedInstType_0::SimdAesMix            0      0.00%     78.52% # Class of committed instruction (Count)
system.cpu.commit.committedInstType_0::SimdSha1Hash            0      0.00%     78.52% # Class of committed instruction (Count)
system.cpu.commit.committedInstType_0::SimdSha1Hash2            0      0.00%     78.52% # Class of committed instruction (Count)
system.cpu.commit.committedInstType_0::SimdSha256Hash            0      0.00%     78.52% # Class of committed instruction (Count)
system.cpu.commit.committedInstType_0::SimdSha256Hash2            0      0.00%     78.52% # Class of committed instruction (Count)
system.cpu.commit.committedInstType_0::SimdShaSigma2            0      0.00%     78.52% # Class of committed instruction (Count)
system.cpu.commit.committedInstType_0::SimdShaSigma3            0      0.00%     78.52% # Class of committed instruction (Count)
system.cpu.commit.committedInstType_0::SimdPredAlu            0      0.00%     78.52% # Class of committed instruction (Count)
system.cpu.commit.committedInstType_0::Matrix            0      0.00%     78.52% # Class of committed instruction (Count)
system.cpu.commit.committedInstType_0::MatrixMov            0      0.00%     78.52% # Class of committed instruction (Count)
system.cpu.commit.committedInstType_0::MatrixOP            0      0.00%     78.52% # Class of committed instruction (Count)
system.cpu.commit.committedInstType_0::MemRead     18252772     14.61%     93.13% # Class of committed instruction (Count)
system.cpu.commit.committedInstType_0::MemWrite      7907794      6.33%     99.46% # Class of committed instruction (Count)
system.cpu.commit.committedInstType_0::FloatMemRead       273768      0.22%     99.68% # Class of committed instruction (Count)
system.cpu.commit.committedInstType_0::FloatMemWrite       399330      0.32%    100.00% # Class of committed instruction (Count)
system.cpu.commit.committedInstType_0::IprAccess            0      0.00%    100.00% # Class of committed instruction (Count)
system.cpu.commit.committedInstType_0::InstPrefetch            0      0.00%    100.00% # Class of committed instruction (Count)
system.cpu.commit.committedInstType_0::SimdUnitStrideLoad            0      0.00%    100.00% # Class of committed instruction (Count)
system.cpu.commit.committedInstType_0::SimdUnitStrideStore            0      0.00%    100.00% # Class of committed instruction (Count)
system.cpu.commit.committedInstType_0::SimdUnitStrideMaskLoad            0      0.00%    100.00% # Class of committed instruction (Count)
system.cpu.commit.committedInstType_0::SimdUnitStrideMaskStore            0      0.00%    100.00% # Class of committed instruction (Count)
system.cpu.commit.committedInstType_0::SimdStridedLoad            0      0.00%    100.00% # Class of committed instruction (Count)
system.cpu.commit.committedInstType_0::SimdStridedStore            0      0.00%    100.00% # Class of committed instruction (Count)
system.cpu.commit.committedInstType_0::SimdIndexedLoad            0      0.00%    100.00% # Class of committed instruction (Count)
system.cpu.commit.committedInstType_0::SimdIndexedStore            0      0.00%    100.00% # Class of committed instruction (Count)
system.cpu.commit.committedInstType_0::SimdWholeRegisterLoad            0      0.00%    100.00% # Class of committed instruction (Count)
system.cpu.commit.committedInstType_0::SimdWholeRegisterStore            0      0.00%    100.00% # Class of committed instruction (Count)
system.cpu.commit.committedInstType_0::SimdUnitStrideFaultOnlyFirstLoad            0      0.00%    100.00% # Class of committed instruction (Count)
system.cpu.commit.committedInstType_0::SimdUnitStrideSegmentedLoad            0      0.00%    100.00% # Class of committed instruction (Count)
system.cpu.commit.committedInstType_0::SimdUnitStrideSegmentedStore            0      0.00%    100.00% # Class of committed instruction (Count)
system.cpu.commit.committedInstType_0::SimdExt            0      0.00%    100.00% # Class of committed instruction (Count)
system.cpu.commit.committedInstType_0::SimdFloatExt            0      0.00%    100.00% # Class of committed instruction (Count)
system.cpu.commit.committedInstType_0::SimdConfig            0      0.00%    100.00% # Class of committed instruction (Count)
system.cpu.commit.committedInstType_0::total    124896658                       # Class of committed instruction (Count)
system.cpu.commit.commitEligibleSamples       5876192                       # number cycles where commit BW limit reached (Cycle)
system.cpu.commitStats0.numInsts             73388313                       # Number of instructions committed (thread level) (Count)
system.cpu.commitStats0.numOps              124896658                       # Number of ops (including micro ops) committed (thread level) (Count)
system.cpu.commitStats0.numInstsNotNOP       73388313                       # Number of instructions committed excluding NOPs or prefetches (Count)
system.cpu.commitStats0.numOpsNotNOP        124896658                       # Number of Ops (including micro ops) Simulated (Count)
system.cpu.commitStats0.cpi                  1.967708                       # CPI: cycles per instruction (thread level) ((Cycle/Count))
system.cpu.commitStats0.ipc                  0.508205                       # IPC: instructions per cycle (thread level) ((Count/Cycle))
system.cpu.commitStats0.numMemRefs           26833664                       # Number of memory references committed (Count)
system.cpu.commitStats0.numFpInsts             865570                       # Number of float instructions (Count)
system.cpu.commitStats0.numIntInsts         124479010                       # Number of integer instructions (Count)
system.cpu.commitStats0.numLoadInsts         18526540                       # Number of load instructions (Count)
system.cpu.commitStats0.numStoreInsts         8307124                       # Number of store instructions (Count)
system.cpu.commitStats0.numVecInsts                 0                       # Number of vector instructions (Count)
system.cpu.commitStats0.committedInstType::No_OpClass       210243      0.17%      0.17% # Class of committed instruction. (Count)
system.cpu.commitStats0.committedInstType::IntAlu     97623308     78.16%     78.33% # Class of committed instruction. (Count)
system.cpu.commitStats0.committedInstType::IntMult          133      0.00%     78.33% # Class of committed instruction. (Count)
system.cpu.commitStats0.committedInstType::IntDiv        41555      0.03%     78.36% # Class of committed instruction. (Count)
system.cpu.commitStats0.committedInstType::FloatAdd         7767      0.01%     78.37% # Class of committed instruction. (Count)
system.cpu.commitStats0.committedInstType::FloatCmp            0      0.00%     78.37% # Class of committed instruction. (Count)
system.cpu.commitStats0.committedInstType::FloatCvt         1376      0.00%     78.37% # Class of committed instruction. (Count)
system.cpu.commitStats0.committedInstType::FloatMult            0      0.00%     78.37% # Class of committed instruction. (Count)
system.cpu.commitStats0.committedInstType::FloatMultAcc            0      0.00%     78.37% # Class of committed instruction. (Count)
system.cpu.commitStats0.committedInstType::FloatDiv            0      0.00%     78.37% # Class of committed instruction. (Count)
system.cpu.commitStats0.committedInstType::FloatMisc            0      0.00%     78.37% # Class of committed instruction. (Count)
system.cpu.commitStats0.committedInstType::FloatSqrt            0      0.00%     78.37% # Class of committed instruction. (Count)
system.cpu.commitStats0.committedInstType::SimdAdd         6794      0.01%     78.38% # Class of committed instruction. (Count)
system.cpu.commitStats0.committedInstType::SimdAddAcc            0      0.00%     78.38% # Class of committed instruction. (Count)
system.cpu.commitStats0.committedInstType::SimdAlu       141584      0.11%     78.49% # Class of committed instruction. (Count)
system.cpu.commitStats0.committedInstType::SimdCmp           12      0.00%     78.49% # Class of committed instruction. (Count)
system.cpu.commitStats0.committedInstType::SimdCvt        13570      0.01%     78.50% # Class of committed instruction. (Count)
system.cpu.commitStats0.committedInstType::SimdMisc        14547      0.01%     78.51% # Class of committed instruction. (Count)
system.cpu.commitStats0.committedInstType::SimdMult            0      0.00%     78.51% # Class of committed instruction. (Count)
system.cpu.commitStats0.committedInstType::SimdMultAcc            0      0.00%     78.51% # Class of committed instruction. (Count)
system.cpu.commitStats0.committedInstType::SimdMatMultAcc            0      0.00%     78.51% # Class of committed instruction. (Count)
system.cpu.commitStats0.committedInstType::SimdShift         1717      0.00%     78.51% # Class of committed instruction. (Count)
system.cpu.commitStats0.committedInstType::SimdShiftAcc            0      0.00%     78.51% # Class of committed instruction. (Count)
system.cpu.commitStats0.committedInstType::SimdDiv            0      0.00%     78.51% # Class of committed instruction. (Count)
system.cpu.commitStats0.committedInstType::SimdSqrt            0      0.00%     78.51% # Class of committed instruction. (Count)
system.cpu.commitStats0.committedInstType::SimdFloatAdd           49      0.00%     78.52% # Class of committed instruction. (Count)
system.cpu.commitStats0.committedInstType::SimdFloatAlu            0      0.00%     78.52% # Class of committed instruction. (Count)
system.cpu.commitStats0.committedInstType::SimdFloatCmp            0      0.00%     78.52% # Class of committed instruction. (Count)
system.cpu.commitStats0.committedInstType::SimdFloatCvt          290      0.00%     78.52% # Class of committed instruction. (Count)
system.cpu.commitStats0.committedInstType::SimdFloatDiv           17      0.00%     78.52% # Class of committed instruction. (Count)
system.cpu.commitStats0.committedInstType::SimdFloatMisc            0      0.00%     78.52% # Class of committed instruction. (Count)
system.cpu.commitStats0.committedInstType::SimdFloatMult            0      0.00%     78.52% # Class of committed instruction. (Count)
system.cpu.commitStats0.committedInstType::SimdFloatMultAcc            0      0.00%     78.52% # Class of committed instruction. (Count)
system.cpu.commitStats0.committedInstType::SimdFloatMatMultAcc            0      0.00%     78.52% # Class of committed instruction. (Count)
system.cpu.commitStats0.committedInstType::SimdFloatSqrt           32      0.00%     78.52% # Class of committed instruction. (Count)
system.cpu.commitStats0.committedInstType::SimdReduceAdd            0      0.00%     78.52% # Class of committed instruction. (Count)
system.cpu.commitStats0.committedInstType::SimdReduceAlu            0      0.00%     78.52% # Class of committed instruction. (Count)
system.cpu.commitStats0.committedInstType::SimdReduceCmp            0      0.00%     78.52% # Class of committed instruction. (Count)
system.cpu.commitStats0.committedInstType::SimdFloatReduceAdd            0      0.00%     78.52% # Class of committed instruction. (Count)
system.cpu.commitStats0.committedInstType::SimdFloatReduceCmp            0      0.00%     78.52% # Class of committed instruction. (Count)
system.cpu.commitStats0.committedInstType::SimdAes            0      0.00%     78.52% # Class of committed instruction. (Count)
system.cpu.commitStats0.committedInstType::SimdAesMix            0      0.00%     78.52% # Class of committed instruction. (Count)
system.cpu.commitStats0.committedInstType::SimdSha1Hash            0      0.00%     78.52% # Class of committed instruction. (Count)
system.cpu.commitStats0.committedInstType::SimdSha1Hash2            0      0.00%     78.52% # Class of committed instruction. (Count)
system.cpu.commitStats0.committedInstType::SimdSha256Hash            0      0.00%     78.52% # Class of committed instruction. (Count)
system.cpu.commitStats0.committedInstType::SimdSha256Hash2            0      0.00%     78.52% # Class of committed instruction. (Count)
system.cpu.commitStats0.committedInstType::SimdShaSigma2            0      0.00%     78.52% # Class of committed instruction. (Count)
system.cpu.commitStats0.committedInstType::SimdShaSigma3            0      0.00%     78.52% # Class of committed instruction. (Count)
system.cpu.commitStats0.committedInstType::SimdPredAlu            0      0.00%     78.52% # Class of committed instruction. (Count)
system.cpu.commitStats0.committedInstType::Matrix            0      0.00%     78.52% # Class of committed instruction. (Count)
system.cpu.commitStats0.committedInstType::MatrixMov            0      0.00%     78.52% # Class of committed instruction. (Count)
system.cpu.commitStats0.committedInstType::MatrixOP            0      0.00%     78.52% # Class of committed instruction. (Count)
system.cpu.commitStats0.committedInstType::MemRead     18252772     14.61%     93.13% # Class of committed instruction. (Count)
system.cpu.commitStats0.committedInstType::MemWrite      7907794      6.33%     99.46% # Class of committed instruction. (Count)
system.cpu.commitStats0.committedInstType::FloatMemRead       273768      0.22%     99.68% # Class of committed instruction. (Count)
system.cpu.commitStats0.committedInstType::FloatMemWrite       399330      0.32%    100.00% # Class of committed instruction. (Count)
system.cpu.commitStats0.committedInstType::IprAccess            0      0.00%    100.00% # Class of committed instruction. (Count)
system.cpu.commitStats0.committedInstType::InstPrefetch            0      0.00%    100.00% # Class of committed instruction. (Count)
system.cpu.commitStats0.committedInstType::SimdUnitStrideLoad            0      0.00%    100.00% # Class of committed instruction. (Count)
system.cpu.commitStats0.committedInstType::SimdUnitStrideStore            0      0.00%    100.00% # Class of committed instruction. (Count)
system.cpu.commitStats0.committedInstType::SimdUnitStrideMaskLoad            0      0.00%    100.00% # Class of committed instruction. (Count)
system.cpu.commitStats0.committedInstType::SimdUnitStrideMaskStore            0      0.00%    100.00% # Class of committed instruction. (Count)
system.cpu.commitStats0.committedInstType::SimdStridedLoad            0      0.00%    100.00% # Class of committed instruction. (Count)
system.cpu.commitStats0.committedInstType::SimdStridedStore            0      0.00%    100.00% # Class of committed instruction. (Count)
system.cpu.commitStats0.committedInstType::SimdIndexedLoad            0      0.00%    100.00% # Class of committed instruction. (Count)
system.cpu.commitStats0.committedInstType::SimdIndexedStore            0      0.00%    100.00% # Class of committed instruction. (Count)
system.cpu.commitStats0.committedInstType::SimdWholeRegisterLoad            0      0.00%    100.00% # Class of committed instruction. (Count)
system.cpu.commitStats0.committedInstType::SimdWholeRegisterStore            0      0.00%    100.00% # Class of committed instruction. (Count)
system.cpu.commitStats0.committedInstType::SimdUnitStrideFaultOnlyFirstLoad            0      0.00%    100.00% # Class of committed instruction. (Count)
system.cpu.commitStats0.committedInstType::SimdUnitStrideSegmentedLoad            0      0.00%    100.00% # Class of committed instruction. (Count)
system.cpu.commitStats0.committedInstType::SimdUnitStrideSegmentedStore            0      0.00%    100.00% # Class of committed instruction. (Count)
system.cpu.commitStats0.committedInstType::SimdExt            0      0.00%    100.00% # Class of committed instruction. (Count)
system.cpu.commitStats0.committedInstType::SimdFloatExt            0      0.00%    100.00% # Class of committed instruction. (Count)
system.cpu.commitStats0.committedInstType::SimdConfig            0      0.00%    100.00% # Class of committed instruction. (Count)
system.cpu.commitStats0.committedInstType::total    124896658                       # Class of committed instruction. (Count)
system.cpu.commitStats0.committedControl::IsControl     11547010                       # Class of control type instructions committed (Count)
system.cpu.commitStats0.committedControl::IsDirectControl     11399316                       # Class of control type instructions committed (Count)
system.cpu.commitStats0.committedControl::IsIndirectControl       147447                       # Class of control type instructions committed (Count)
system.cpu.commitStats0.committedControl::IsCondControl     10923129                       # Class of control type instructions committed (Count)
system.cpu.commitStats0.committedControl::IsUncondControl       623634                       # Class of control type instructions committed (Count)
system.cpu.commitStats0.committedControl::IsCall       141560                       # Class of control type instructions committed (Count)
system.cpu.commitStats0.committedControl::IsReturn       141555                       # Class of control type instructions committed (Count)
system.cpu.decode.idleCycles                 56499544                       # Number of cycles decode is idle (Cycle)
system.cpu.decode.blockedCycles              68712400                       # Number of cycles decode is blocked (Cycle)
system.cpu.decode.runCycles                  10660245                       # Number of cycles decode is running (Cycle)
system.cpu.decode.unblockCycles               7817830                       # Number of cycles decode is unblocking (Cycle)
system.cpu.decode.squashCycles                  76108                       # Number of cycles decode is squashing (Cycle)
system.cpu.decode.branchResolved              8912361                       # Number of times decode resolved a branch (Count)
system.cpu.decode.branchMispred                  1825                       # Number of times decode detected a branch misprediction (Count)
system.cpu.decode.decodedInsts              127001143                       # Number of instructions handled by decode (Count)
system.cpu.decode.squashedInsts                  9020                       # Number of squashed instructions handled by decode (Count)
system.cpu.executeStats0.numInsts           131809692                       # Number of executed instructions (Count)
system.cpu.executeStats0.numNop                     0                       # Number of nop insts executed (Count)
system.cpu.executeStats0.numBranches         11680770                       # Number of branches executed (Count)
system.cpu.executeStats0.numLoadInsts        24341732                       # Number of load instructions executed (Count)
system.cpu.executeStats0.numStoreInsts        8345509                       # Number of stores executed (Count)
system.cpu.executeStats0.instRate            0.912766                       # Inst execution rate ((Count/Cycle))
system.cpu.executeStats0.numCCRegReads       70847199                       # Number of times the CC registers were read (Count)
system.cpu.executeStats0.numCCRegWrites      67262195                       # Number of times the CC registers were written (Count)
system.cpu.executeStats0.numFpRegReads         784736                       # Number of times the floating registers were read (Count)
system.cpu.executeStats0.numFpRegWrites        465579                       # Number of times the floating registers were written (Count)
system.cpu.executeStats0.numIntRegReads     179968191                       # Number of times the integer registers were read (Count)
system.cpu.executeStats0.numIntRegWrites     95547646                       # Number of times the integer registers were written (Count)
system.cpu.executeStats0.numMemRefs          32687241                       # Number of memory refs (Count)
system.cpu.executeStats0.numMiscRegReads     56244688                       # Number of times the Misc registers were read (Count)
system.cpu.executeStats0.numMiscRegWrites          774                       # Number of times the Misc registers were written (Count)
system.cpu.executeStats0.numVecAluAccesses            0                       # Number of vector alu accesses (Count)
system.cpu.executeStats0.numDiscardedOps            0                       # Number of ops (including micro ops) which were discarded before commit (Count)
system.cpu.fetch.predictedBranches            9074250                       # Number of branches that fetch has predicted taken (Count)
system.cpu.fetch.cycles                      91174040                       # Number of cycles fetch has run and was not squashing or blocked (Cycle)
system.cpu.fetch.squashCycles                  155692                       # Number of cycles fetch has spent squashing (Cycle)
system.cpu.fetch.miscStallCycles                 1537                       # Number of cycles fetch has spent waiting on interrupts, or bad addresses, or out of MSHRs (Cycle)
system.cpu.fetch.pendingTrapStallCycles          4770                       # Number of stall cycles due to pending traps (Cycle)
system.cpu.fetch.icacheWaitRetryStallCycles          555                       # Number of stall cycles due to full MSHR (Cycle)
[...]
system.mem_ctrl.dram.bwRead::cpu.data        39445182                       # Total read bandwidth from this memory ((Byte/Second))
system.mem_ctrl.dram.bwRead::total          119409358                       # Total read bandwidth from this memory ((Byte/Second))
system.mem_ctrl.dram.bwInstRead::cpu.inst     79964176                       # Instruction read bandwidth from this memory ((Byte/Second))
system.mem_ctrl.dram.bwInstRead::total       79964176                       # Instruction read bandwidth from this memory ((Byte/Second))
system.mem_ctrl.dram.bwWrite::cpu.data        7579257                       # Write bandwidth from this memory ((Byte/Second))
system.mem_ctrl.dram.bwWrite::total           7579257                       # Write bandwidth from this memory ((Byte/Second))
system.mem_ctrl.dram.bwTotal::cpu.inst       79964176                       # Total bandwidth to/from this memory ((Byte/Second))
system.mem_ctrl.dram.bwTotal::cpu.data       47024439                       # Total bandwidth to/from this memory ((Byte/Second))
system.mem_ctrl.dram.bwTotal::total         126988615                       # Total bandwidth to/from this memory ((Byte/Second))
system.mem_ctrl.dram.readBursts                146304                       # Number of DRAM read bursts (Count)
system.mem_ctrl.dram.writeBursts                  524                       # Number of DRAM write bursts (Count)
system.mem_ctrl.dram.perBankRdBursts::0          8868                       # Per bank write bursts (Count)
system.mem_ctrl.dram.perBankRdBursts::1          8697                       # Per bank write bursts (Count)
system.mem_ctrl.dram.perBankRdBursts::2          9582                       # Per bank write bursts (Count)
system.mem_ctrl.dram.perBankRdBursts::3          9350                       # Per bank write bursts (Count)
system.mem_ctrl.dram.perBankRdBursts::4          8717                       # Per bank write bursts (Count)
system.mem_ctrl.dram.perBankRdBursts::5          8933                       # Per bank write bursts (Count)
system.mem_ctrl.dram.perBankRdBursts::6          8695                       # Per bank write bursts (Count)
system.mem_ctrl.dram.perBankRdBursts::7          9628                       # Per bank write bursts (Count)
system.mem_ctrl.dram.perBankRdBursts::8          8783                       # Per bank write bursts (Count)
system.mem_ctrl.dram.perBankRdBursts::9          8639                       # Per bank write bursts (Count)
system.mem_ctrl.dram.perBankRdBursts::10        12144                       # Per bank write bursts (Count)
system.mem_ctrl.dram.perBankRdBursts::11         8898                       # Per bank write bursts (Count)
system.mem_ctrl.dram.perBankRdBursts::12         9287                       # Per bank write bursts (Count)
system.mem_ctrl.dram.perBankRdBursts::13         8136                       # Per bank write bursts (Count)
system.mem_ctrl.dram.perBankRdBursts::14         9272                       # Per bank write bursts (Count)
system.mem_ctrl.dram.perBankRdBursts::15         8675                       # Per bank write bursts (Count)
system.mem_ctrl.dram.perBankWrBursts::0             0                       # Per bank write bursts (Count)
system.mem_ctrl.dram.perBankWrBursts::1             9                       # Per bank write bursts (Count)
system.mem_ctrl.dram.perBankWrBursts::2            11                       # Per bank write bursts (Count)
system.mem_ctrl.dram.perBankWrBursts::3            29                       # Per bank write bursts (Count)
system.mem_ctrl.dram.perBankWrBursts::4            13                       # Per bank write bursts (Count)
system.mem_ctrl.dram.perBankWrBursts::5             3                       # Per bank write bursts (Count)
system.mem_ctrl.dram.perBankWrBursts::6             1                       # Per bank write bursts (Count)
system.mem_ctrl.dram.perBankWrBursts::7            11                       # Per bank write bursts (Count)
system.mem_ctrl.dram.perBankWrBursts::8            14                       # Per bank write bursts (Count)
system.mem_ctrl.dram.perBankWrBursts::9            14                       # Per bank write bursts (Count)
system.mem_ctrl.dram.perBankWrBursts::10          262                       # Per bank write bursts (Count)
system.mem_ctrl.dram.perBankWrBursts::11           36                       # Per bank write bursts (Count)
system.mem_ctrl.dram.perBankWrBursts::12           25                       # Per bank write bursts (Count)
system.mem_ctrl.dram.perBankWrBursts::13            4                       # Per bank write bursts (Count)
system.mem_ctrl.dram.perBankWrBursts::14           51                       # Per bank write bursts (Count)
system.mem_ctrl.dram.perBankWrBursts::15           41                       # Per bank write bursts (Count)
system.mem_ctrl.dram.totQLat               1179304621                       # Total ticks spent queuing (Tick)
system.mem_ctrl.dram.totBusLat              731520000                       # Total ticks spent in databus transfers (Tick)
system.mem_ctrl.dram.totMemAccLat          3922504621                       # Total ticks spent from burst creation until serviced by the DRAM (Tick)
system.mem_ctrl.dram.avgQLat                  8060.65                       # Average queueing delay per DRAM burst ((Tick/Count))
system.mem_ctrl.dram.avgBusLat                5000.00                       # Average bus latency per DRAM burst ((Tick/Count))
system.mem_ctrl.dram.avgMemAccLat            26810.65                       # Average memory access latency per DRAM burst ((Tick/Count))
system.mem_ctrl.dram.readRowHits               134278                       # Number of row buffer hits during reads (Count)
system.mem_ctrl.dram.writeRowHits                 443                       # Number of row buffer hits during writes (Count)
system.mem_ctrl.dram.readRowHitRate             91.78                       # Row buffer hit rate for reads (Ratio)
system.mem_ctrl.dram.writeRowHitRate            84.54                       # Row buffer hit rate for writes (Ratio)
system.mem_ctrl.dram.bytesPerActivate::samples        12113                       # Bytes accessed per row activation (Byte)
system.mem_ctrl.dram.bytesPerActivate::mean   775.856683                       # Bytes accessed per row activation (Byte)
system.mem_ctrl.dram.bytesPerActivate::gmean   590.789717                       # Bytes accessed per row activation (Byte)
system.mem_ctrl.dram.bytesPerActivate::stdev   375.446099                       # Bytes accessed per row activation (Byte)
system.mem_ctrl.dram.bytesPerActivate::0-127         1067      8.81%      8.81% # Bytes accessed per row activation (Byte)
system.mem_ctrl.dram.bytesPerActivate::128-255         1162      9.59%     18.40% # Bytes accessed per row activation (Byte)
system.mem_ctrl.dram.bytesPerActivate::256-383          522      4.31%     22.71% # Bytes accessed per row activation (Byte)
system.mem_ctrl.dram.bytesPerActivate::384-511          558      4.61%     27.32% # Bytes accessed per row activation (Byte)
system.mem_ctrl.dram.bytesPerActivate::512-639          223      1.84%     29.16% # Bytes accessed per row activation (Byte)
system.mem_ctrl.dram.bytesPerActivate::640-767          222      1.83%     30.99% # Bytes accessed per row activation (Byte)
system.mem_ctrl.dram.bytesPerActivate::768-895          197      1.63%     32.62% # Bytes accessed per row activation (Byte)
system.mem_ctrl.dram.bytesPerActivate::896-1023          115      0.95%     33.57% # Bytes accessed per row activation (Byte)
system.mem_ctrl.dram.bytesPerActivate::1024-1151         8047     66.43%    100.00% # Bytes accessed per row activation (Byte)
system.mem_ctrl.dram.bytesPerActivate::total        12113                       # Bytes accessed per row activation (Byte)
system.mem_ctrl.dram.dramBytesRead            9363456                       # Total bytes read (Byte)
system.mem_ctrl.dram.dramBytesWritten           33536                       # Total bytes written (Byte)
system.mem_ctrl.dram.avgRdBW              1738.347530                       # Average DRAM read bandwidth in MiBytes/s ((Byte/Second))
system.mem_ctrl.dram.avgWrBW                 6.226037                       # Average DRAM write bandwidth in MiBytes/s ((Byte/Second))
system.mem_ctrl.dram.peakBW                  12800.00                       # Theoretical peak bandwidth in MiByte/s ((Byte/Second))
system.mem_ctrl.dram.busUtil                    13.63                       # Data bus utilization in percentage (Ratio)
system.mem_ctrl.dram.busUtilRead                13.58                       # Data bus utilization in percentage for reads (Ratio)
system.mem_ctrl.dram.busUtilWrite                0.05                       # Data bus utilization in percentage for writes (Ratio)
system.mem_ctrl.dram.pageHitRate                91.75                       # Row buffer hit rate, read and write combined (Ratio)
system.mem_ctrl.dram.power_state.pwrStateResidencyTicks::UNDEFINED   5386412003                       # Cumulative time (in ticks) in various power states (Tick)
system.mem_ctrl.dram.rank0.actEnergy         43346940                       # Energy for activate commands per rank (pJ) (Joule)
system.mem_ctrl.dram.rank0.preEnergy         23058420                       # Energy for precharge commands per rank (pJ) (Joule)
system.mem_ctrl.dram.rank0.readEnergy       517435800                       # Energy for read commands per rank (pJ) (Joule)
system.mem_ctrl.dram.rank0.writeEnergy         401940                       # Energy for write commands per rank (pJ) (Joule)
system.mem_ctrl.dram.rank0.refreshEnergy 425330880.000000                       # Energy for refresh commands per rank (pJ) (Joule)
system.mem_ctrl.dram.rank0.actBackEnergy   1584277380                       # Energy for active background per rank (pJ) (Joule)
system.mem_ctrl.dram.rank0.preBackEnergy    734254080                       # Energy for precharge background per rank (pJ) (Joule)
system.mem_ctrl.dram.rank0.actPowerDownEnergy            0                       # Energy for active power-down per rank (pJ) (Joule)
system.mem_ctrl.dram.rank0.prePowerDownEnergy            0                       # Energy for precharge power-down per rank (pJ) (Joule)
system.mem_ctrl.dram.rank0.selfRefreshEnergy            0                       # Energy for self refresh per rank (pJ) (Joule)
system.mem_ctrl.dram.rank0.totalEnergy     3328105440                       # Total energy per rank (pJ) (Joule)
system.mem_ctrl.dram.rank0.averagePower    617.870567                       # Core power per rank (mW) (Watt)
system.mem_ctrl.dram.rank0.totalIdleTime            0                       # Total Idle time Per DRAM Rank (Tick)
system.mem_ctrl.dram.rank0.pwrStateTime::IDLE   1854036134                       # Time in different power states (Tick)
system.mem_ctrl.dram.rank0.pwrStateTime::REF    179920000                       # Time in different power states (Tick)
system.mem_ctrl.dram.rank0.pwrStateTime::SREF            0                       # Time in different power states (Tick)
system.mem_ctrl.dram.rank0.pwrStateTime::PRE_PDN            0                       # Time in different power states (Tick)
system.mem_ctrl.dram.rank0.pwrStateTime::ACT   3352455869                       # Time in different power states (Tick)
system.mem_ctrl.dram.rank0.pwrStateTime::ACT_PDN            0                       # Time in different power states (Tick)
system.mem_ctrl.dram.rank1.actEnergy         43097040                       # Energy for activate commands per rank (pJ) (Joule)
system.mem_ctrl.dram.rank1.preEnergy         22910415                       # Energy for precharge commands per rank (pJ) (Joule)
system.mem_ctrl.dram.rank1.readEnergy       527174760                       # Energy for read commands per rank (pJ) (Joule)
system.mem_ctrl.dram.rank1.writeEnergy        2333340                       # Energy for write commands per rank (pJ) (Joule)
system.mem_ctrl.dram.rank1.refreshEnergy 425330880.000000                       # Energy for refresh commands per rank (pJ) (Joule)
system.mem_ctrl.dram.rank1.actBackEnergy   1580270850                       # Energy for active background per rank (pJ) (Joule)
system.mem_ctrl.dram.rank1.preBackEnergy    737628000                       # Energy for precharge background per rank (pJ) (Joule)
system.mem_ctrl.dram.rank1.actPowerDownEnergy            0                       # Energy for active power-down per rank (pJ) (Joule)
system.mem_ctrl.dram.rank1.prePowerDownEnergy            0                       # Energy for precharge power-down per rank (pJ) (Joule)
system.mem_ctrl.dram.rank1.selfRefreshEnergy            0                       # Energy for self refresh per rank (pJ) (Joule)
system.mem_ctrl.dram.rank1.totalEnergy     3338745285                       # Total energy per rank (pJ) (Joule)
system.mem_ctrl.dram.rank1.averagePower    619.845879                       # Core power per rank (mW) (Watt)
system.mem_ctrl.dram.rank1.totalIdleTime            0                       # Total Idle time Per DRAM Rank (Tick)
system.mem_ctrl.dram.rank1.pwrStateTime::IDLE   1861824476                       # Time in different power states (Tick)
system.mem_ctrl.dram.rank1.pwrStateTime::REF    179920000                       # Time in different power states (Tick)
system.mem_ctrl.dram.rank1.pwrStateTime::SREF            0                       # Time in different power states (Tick)
system.mem_ctrl.dram.rank1.pwrStateTime::PRE_PDN            0                       # Time in different power states (Tick)
system.mem_ctrl.dram.rank1.pwrStateTime::ACT   3344667527                       # Time in different power states (Tick)
system.mem_ctrl.dram.rank1.pwrStateTime::ACT_PDN            0                       # Time in different power states (Tick)
system.mem_ctrl.power_state.pwrStateResidencyTicks::UNDEFINED   5386412003                       # Cumulative time (in ticks) in various power states (Tick)
system.membus.transDist::ReadReq               147072                       # Transaction distribution (Count)
system.membus.transDist::ReadResp              147072                       # Transaction distribution (Count)
system.membus.transDist::WriteReq                5426                       # Transaction distribution (Count)
system.membus.transDist::WriteResp               5426                       # Transaction distribution (Count)
system.membus.transDist::LockedRMWReadReq          218                       # Transaction distribution (Count)
system.membus.transDist::LockedRMWReadResp          218                       # Transaction distribution (Count)
system.membus.transDist::LockedRMWWriteReq          218                       # Transaction distribution (Count)
system.membus.transDist::LockedRMWWriteResp          218                       # Transaction distribution (Count)
system.membus.pktCount_system.cpu.icache_port::system.mem_ctrl.port        13460                       # Packet count per connected requestor and responder (Count)
system.membus.pktCount_system.cpu.icache_port::total        13460                       # Packet count per connected requestor and responder (Count)
system.membus.pktCount_system.cpu.dcache_port::system.mem_ctrl.port       292408                       # Packet count per connected requestor and responder (Count)
system.membus.pktCount_system.cpu.dcache_port::total       292408                       # Packet count per connected requestor and responder (Count)
system.membus.pktCount::total                  305868                       # Packet count per connected requestor and responder (Count)
system.membus.pktSize_system.cpu.icache_port::system.mem_ctrl.port       430720                       # Cumulative packet size per connected requestor and responder (Byte)
system.membus.pktSize_system.cpu.icache_port::total       430720                       # Cumulative packet size per connected requestor and responder (Byte)
system.membus.pktSize_system.cpu.dcache_port::system.mem_ctrl.port       253293                       # Cumulative packet size per connected requestor and responder (Byte)
system.membus.pktSize_system.cpu.dcache_port::total       253293                       # Cumulative packet size per connected requestor and responder (Byte)
system.membus.pktSize::total                   684013                       # Cumulative packet size per connected requestor and responder (Byte)
system.membus.snoops                                0                       # Total snoops (Count)
system.membus.snoopTraffic                          0                       # Total snoop traffic (Byte)
system.membus.snoopFanout::samples             152934                       # Request fanout histogram (Count)
system.membus.snoopFanout::mean                     0                       # Request fanout histogram (Count)
system.membus.snoopFanout::stdev                    0                       # Request fanout histogram (Count)
system.membus.snoopFanout::underflows               0      0.00%      0.00% # Request fanout histogram (Count)
system.membus.snoopFanout::0                   152934    100.00%    100.00% # Request fanout histogram (Count)
system.membus.snoopFanout::1                        0      0.00%    100.00% # Request fanout histogram (Count)
system.membus.snoopFanout::overflows                0      0.00%    100.00% # Request fanout histogram (Count)
system.membus.snoopFanout::min_value                0                       # Request fanout histogram (Count)
system.membus.snoopFanout::max_value                0                       # Request fanout histogram (Count)
system.membus.snoopFanout::total               152934                       # Request fanout histogram (Count)
system.membus.power_state.pwrStateResidencyTicks::UNDEFINED   5386412003                       # Cumulative time (in ticks) in various power states (Tick)
system.membus.reqLayer2.occupancy          2114320474                       # Layer occupancy (ticks) (Tick)
system.membus.reqLayer2.utilization               0.4                       # Layer utilization (Ratio)
system.membus.respLayer1.occupancy          462061251                       # Layer occupancy (ticks) (Tick)
system.membus.respLayer1.utilization              0.1                       # Layer utilization (Ratio)
system.membus.respLayer2.occupancy         3871016516                       # Layer occupancy (ticks) (Tick)
system.membus.respLayer2.utilization              0.7                       # Layer utilization (Ratio)
system.membus.snoop_filter.totRequests              0                       # Total number of requests made to the snoop filter. (Count)
system.membus.snoop_filter.hitSingleRequests            0                       # Number of requests hitting in the snoop filter with a single holder of the requested data. (Count)
system.membus.snoop_filter.hitMultiRequests            0                       # Number of requests hitting in the snoop filter with multiple (>1) holders of the requested data. (Count)
system.membus.snoop_filter.totSnoops                0                       # Total number of snoops made to the snoop filter. (Count)
system.membus.snoop_filter.hitSingleSnoops            0                       # Number of snoops hitting in the snoop filter with a single holder of the requested data. (Count)
system.membus.snoop_filter.hitMultiSnoops            0                       # Number of snoops hitting in the snoop filter with multiple (>1) holders of the requested data. (Count)
system.workload.inst.arm                            0                       # number of arm instructions executed (Count)
system.workload.inst.quiesce                        0                       # number of quiesce instructions executed (Count)

---------- End Simulation Statistics   ----------
